5281614
  RxDock  02242112573D
librxdock.so/0.1.0
 25 27  0  0  0  0  0  0  0  0999 V2000
  -51.8516   -4.1840   14.6948 O   0  0  0  0  0  0
  -53.7765   -4.1328   17.8380 O   0  0  0  0  0  0
  -52.0764   -1.9464   18.0929 O   0  0  0  0  0  0
  -48.3883   -1.4576   12.9329 O   0  0  0  0  0  0
  -53.9558   -9.1288   16.5080 O   0  0  0  0  0  0
  -55.9077   -8.9979   14.5345 O   0  0  0  0  0  0
  -52.7609   -4.4814   15.6975 C   0  0  0  0  0  0
  -51.0558   -2.2956   15.9957 C   0  0  0  0  0  0
  -51.0268   -3.1014   14.8595 C   0  0  0  0  0  0
  -53.5831   -5.6664   15.3949 C   0  0  0  0  0  0
  -52.8837   -3.7905   16.8455 C   0  0  0  0  0  0
  -52.0091   -2.6141   17.0696 C   0  0  0  0  0  0
  -50.1901   -1.2049   16.1094 C   0  0  0  0  0  0
  -50.1301   -2.8214   13.8281 C   0  0  0  0  0  0
  -53.3828   -6.8535   16.1000 C   0  0  0  0  0  0
  -54.5622   -5.6017   14.4032 C   0  0  0  0  0  0
  -49.2642   -1.7332   13.9379 C   0  0  0  0  0  0
  -49.2944   -0.9267   15.0763 C   0  0  0  0  0  0
  -54.1613   -7.9750   15.8140 C   0  0  0  0  0  0
  -55.3404   -6.7233   14.1169 C   0  0  0  0  0  0
  -55.1401   -7.9099   14.8223 C   0  0  0  0  0  0
  -54.2274   -3.3377   18.1646 H   0  0  0  0  0  0
  -48.1659   -0.5109   12.9596 H   0  0  0  0  0  0
  -53.0126   -9.2205   16.7186 H   0  0  0  0  0  0
  -55.6619   -9.7349   15.1167 H   0  0  0  0  0  0
  1  7  1  0  0  0
  1  9  1  0  0  0
  2 11  1  0  0  0
  2 22  1  0  0  0
  3 12  2  0  0  0
  4 17  1  0  0  0
  4 23  1  0  0  0
  5 19  1  0  0  0
  5 24  1  0  0  0
  6 21  1  0  0  0
  6 25  1  0  0  0
  7 10  1  0  0  0
  7 11  2  0  0  0
  8  9  2  0  0  0
  8 12  1  0  0  0
  8 13  1  0  0  0
  9 14  1  0  0  0
 10 15  2  0  0  0
 10 16  1  0  0  0
 11 12  1  0  0  0
 13 18  2  0  0  0
 14 17  2  0  0  0
 15 19  1  0  0  0
 16 20  2  0  0  0
 17 18  1  0  0  0
 19 21  2  0  0  0
 20 21  1  0  0  0
M  END
>  <CHROM.0>
174.58141689,172.80514779,55.71243462

>  <CHROM.1>
-135.78012596,154.76170055,-34.31114676,0.98835251,108.95318311,-52.43590394
-4.50650026,15.47908683,-0.41830149,-0.82726303,-2.18134760

>  <Name>
5281614

>  <PUBCHEM_ATOM_DEF_STEREO_COUNT>
0

>  <PUBCHEM_ATOM_UDEF_STEREO_COUNT>
0

>  <PUBCHEM_BOND_DEF_STEREO_COUNT>
0

>  <PUBCHEM_BOND_UDEF_STEREO_COUNT>
0

>  <PUBCHEM_CACTVS_TAUTO_COUNT>
211

>  <PUBCHEM_COMPONENT_COUNT>
1

>  <PUBCHEM_COMPOUND_CID>
5281614

>  <PUBCHEM_CONFORMER_DIVERSEORDER>
1
3
2
4

>  <PUBCHEM_CONFORMER_ID>
0050974E00000001

>  <PUBCHEM_CONFORMER_RMSD>
0.6

>  <PUBCHEM_COORDINATE_TYPE>
2
5
10

>  <PUBCHEM_EFFECTIVE_ROTOR_COUNT>
1

>  <PUBCHEM_FEATURE_SELFOVERLAP>
45.705

>  <PUBCHEM_HEAVY_ATOM_COUNT>
21

>  <PUBCHEM_ISOTOPIC_ATOM_COUNT>
0

>  <PUBCHEM_MMFF94_ENERGY>
63.3231

>  <PUBCHEM_MMFF94_PARTIAL_CHARGES>
31
1 -0.16
10 0.03
11 0.09
12 0.47
13 -0.15
14 -0.15
15 -0.15
16 -0.15
17 0.08
18 -0.15
19 0.08
2 -0.53
20 -0.15
21 0.08
22 0.15
23 0.15
24 0.15
25 0.15
26 0.15
27 0.15
28 0.45
29 0.45
3 -0.57
30 0.45
31 0.45
4 -0.53
5 -0.53
6 -0.53
7 0.05
8 0.09
9 0.08

>  <PUBCHEM_PHARMACOPHORE_FEATURES>
9
1 1 acceptor
1 2 donor
1 3 acceptor
1 4 donor
1 5 donor
1 6 donor
6 1 7 8 9 11 12 rings
6 10 15 16 19 20 21 rings
6 8 9 13 14 17 18 rings

>  <PUBCHEM_SHAPE_FINGERPRINT>
10319926 262 18197191691463025650
11046707 91 18409165524084290187
11370993 144 16916795041429104491
11543360 7 15574712534293567507
11552529 35 14619643787438718685
11796584 16 18053666872396607318
12236239 1 17676205732828356282
12363563 72 18338520845390468915
12553582 1 18335422383079402043
12788726 201 18187641337300532121
13140716 1 18339079393340139273
13288520 33 18410009940308579395
13862211 1 18410289242354007383
14386348 63 17917992754818192534
14790565 3 17763186834971878929
15196674 1 18337951294098693961
15961568 22 18336260267091762604
16752209 62 18261386724325207555
16945 1 18409726227938926049
17138139 8 17532082985083390723
17349148 13 17385719171601143218
17492 89 17907293605117387543
17804303 29 18412823599249003441
1813 80 18412549841927571013
18222031 100 18270677688170113671
19141452 34 17775002427494233167
193927 3 18341338906756936155
19862831 5 17530686498194398818
200 152 16588022381663776488
20028762 73 18057885956073817583
20374829 77 18410572903236631871
20871999 31 18337117786637799036
21033648 29 17131255892312039915
21033650 10 18046089085349049940
21065201 7 18341891827797866298
21267235 1 18335986445693298475
21728266 224 18188759570664201938
2297311 6 18412833473088575574
23175994 123 17346881152422268889
23366157 5 17897725602754440013
23402539 116 18408315575399129671
23557571 272 18272649000812649592
23559900 14 18413386519095611444
3004659 81 18040430018584867655
314173 85 18272092703678835857
335352 9 18409726267052334141
465052 167 18266466588748397503
474 4 17023763350005520324
5104073 3 18341336712149552321
573450 72 18187920621695786632
602551 16 18412824668690624378
67856867 119 18187367683775908276
7364860 26 18126285491440728585
7495541 125 18202279217511116160
77492 1 17531530876096207384
7970288 3 18337387253029349179
9709674 26 18199470952612142918

>  <PUBCHEM_SHAPE_MULTIPOLES>
396.95
10.64
2.28
1.08
3.76
1.07
-0.1
-6.17
-0.53
-2.96
-0.07
1.72
-0.2
0.22

>  <PUBCHEM_SHAPE_SELFOVERLAP>
888.737

>  <PUBCHEM_SHAPE_VOLUME>
209.3

>  <RI>
-1.06822e+09

>  <Rbt.Current_Directory>
/root/miniconda3/envs/rdock/share/rxdock-2013.1.1_148c5bd1-0/data/ligands/prepped_ligands/Fisetin

>  <Rbt.Executable>
rbdock/0.1.0

>  <Rbt.Library>
librxdock.so/0.1.0

>  <Rbt.Parameter_File>
/root/miniconda3/envs/rdock/share/rxdock-2013.1.1_148c5bd1-0/data/scripts/dock.prm

>  <Rbt.Receptor>
def.prm

>  <SCORE>
-16.8933

>  <SCORE.INTER>
-16.0065

>  <SCORE.INTER.CONST>
1

>  <SCORE.INTER.POLAR>
-1.58953

>  <SCORE.INTER.REPUL>
0.220813

>  <SCORE.INTER.ROT>
1

>  <SCORE.INTER.VDW>
-18.1061

>  <SCORE.INTER.norm>
-0.762212

>  <SCORE.INTRA>
-0.0123688

>  <SCORE.INTRA.DIHEDRAL>
2.86448

>  <SCORE.INTRA.DIHEDRAL.0>
6.17317

>  <SCORE.INTRA.POLAR>
-0.108865

>  <SCORE.INTRA.POLAR.0>
0

>  <SCORE.INTRA.REPUL>
0

>  <SCORE.INTRA.REPUL.0>
0

>  <SCORE.INTRA.VDW>
-1.07447

>  <SCORE.INTRA.VDW.0>
0.491979

>  <SCORE.INTRA.norm>
-0.000588989

>  <SCORE.RESTR>
0.00223381

>  <SCORE.RESTR.CAVITY>
0.00223381

>  <SCORE.RESTR.norm>
0.000106372

>  <SCORE.SYSTEM>
-0.876667

>  <SCORE.SYSTEM.CONST>
0

>  <SCORE.SYSTEM.DIHEDRAL>
0.377191

>  <SCORE.SYSTEM.VDW>
-1.06526

>  <SCORE.SYSTEM.norm>
-0.0417461

>  <SCORE.heavy>
21

>  <SCORE.norm>
-0.804441

$$$$
5281614
  RxDock  02242112573D
librxdock.so/0.1.0
 25 27  0  0  0  0  0  0  0  0999 V2000
  -52.6581   -4.9948   14.5901 O   0  0  0  0  0  0
  -50.3256   -5.2383   17.4340 O   0  0  0  0  0  0
  -52.2036   -7.2172   17.9752 O   0  0  0  0  0  0
  -56.6156   -7.3271   13.3939 O   0  0  0  0  0  0
  -50.9034   -0.2680   13.7969 O   0  0  0  0  0  0
  -48.1539   -0.6688   13.7645 O   0  0  0  0  0  0
  -51.5889   -4.7940   15.4487 C   0  0  0  0  0  0
  -53.4657   -6.7714   16.0335 C   0  0  0  0  0  0
  -53.5658   -5.9763   14.8938 C   0  0  0  0  0  0
  -50.6919   -3.7116   15.0065 C   0  0  0  0  0  0
  -51.3820   -5.4856   16.5843 C   0  0  0  0  0  0
  -52.3407   -6.5540   16.9559 C   0  0  0  0  0  0
  -54.4218   -7.7566   16.2927 C   0  0  0  0  0  0
  -54.6248   -6.1614   14.0047 C   0  0  0  0  0  0
  -51.2226   -2.4853   14.6055 C   0  0  0  0  0  0
  -49.3115   -3.9128   14.9886 C   0  0  0  0  0  0
  -55.5813   -7.1441   14.2598 C   0  0  0  0  0  0
  -55.4797   -7.9401   15.4016 C   0  0  0  0  0  0
  -50.3736   -1.4606   14.1873 C   0  0  0  0  0  0
  -48.4625   -2.8882   14.5701 C   0  0  0  0  0  0
  -48.9935   -1.6621   14.1695 C   0  0  0  0  0  0
  -50.3143   -5.8973   18.1466 H   0  0  0  0  0  0
  -57.3081   -7.8481   13.8357 H   0  0  0  0  0  0
  -51.6097   -0.4203   13.1485 H   0  0  0  0  0  0
  -47.2955   -1.0475   13.5150 H   0  0  0  0  0  0
  1  7  1  0  0  0
  1  9  1  0  0  0
  2 11  1  0  0  0
  2 22  1  0  0  0
  3 12  2  0  0  0
  4 17  1  0  0  0
  4 23  1  0  0  0
  5 19  1  0  0  0
  5 24  1  0  0  0
  6 21  1  0  0  0
  6 25  1  0  0  0
  7 10  1  0  0  0
  7 11  2  0  0  0
  8  9  2  0  0  0
  8 12  1  0  0  0
  8 13  1  0  0  0
  9 14  1  0  0  0
 10 15  2  0  0  0
 10 16  1  0  0  0
 11 12  1  0  0  0
 13 18  2  0  0  0
 14 17  2  0  0  0
 15 19  1  0  0  0
 16 20  2  0  0  0
 17 18  1  0  0  0
 19 21  2  0  0  0
 20 21  1  0  0  0
M  END
>  <CHROM.0>
59.99192838,58.99687121,175.34055660

>  <CHROM.1>
-174.84517236,-163.72759909,-50.26293696,-160.26448990,47.42880045,-51.99967695
-4.73519938,15.14891573,2.49199419,0.52048208,2.39427384

>  <Name>
5281614

>  <PUBCHEM_ATOM_DEF_STEREO_COUNT>
0

>  <PUBCHEM_ATOM_UDEF_STEREO_COUNT>
0

>  <PUBCHEM_BOND_DEF_STEREO_COUNT>
0

>  <PUBCHEM_BOND_UDEF_STEREO_COUNT>
0

>  <PUBCHEM_CACTVS_TAUTO_COUNT>
211

>  <PUBCHEM_COMPONENT_COUNT>
1

>  <PUBCHEM_COMPOUND_CID>
5281614

>  <PUBCHEM_CONFORMER_DIVERSEORDER>
1
3
2
4

>  <PUBCHEM_CONFORMER_ID>
0050974E00000001

>  <PUBCHEM_CONFORMER_RMSD>
0.6

>  <PUBCHEM_COORDINATE_TYPE>
2
5
10

>  <PUBCHEM_EFFECTIVE_ROTOR_COUNT>
1

>  <PUBCHEM_FEATURE_SELFOVERLAP>
45.705

>  <PUBCHEM_HEAVY_ATOM_COUNT>
21

>  <PUBCHEM_ISOTOPIC_ATOM_COUNT>
0

>  <PUBCHEM_MMFF94_ENERGY>
63.3231

>  <PUBCHEM_MMFF94_PARTIAL_CHARGES>
31
1 -0.16
10 0.03
11 0.09
12 0.47
13 -0.15
14 -0.15
15 -0.15
16 -0.15
17 0.08
18 -0.15
19 0.08
2 -0.53
20 -0.15
21 0.08
22 0.15
23 0.15
24 0.15
25 0.15
26 0.15
27 0.15
28 0.45
29 0.45
3 -0.57
30 0.45
31 0.45
4 -0.53
5 -0.53
6 -0.53
7 0.05
8 0.09
9 0.08

>  <PUBCHEM_PHARMACOPHORE_FEATURES>
9
1 1 acceptor
1 2 donor
1 3 acceptor
1 4 donor
1 5 donor
1 6 donor
6 1 7 8 9 11 12 rings
6 10 15 16 19 20 21 rings
6 8 9 13 14 17 18 rings

>  <PUBCHEM_SHAPE_FINGERPRINT>
10319926 262 18197191691463025650
11046707 91 18409165524084290187
11370993 144 16916795041429104491
11543360 7 15574712534293567507
11552529 35 14619643787438718685
11796584 16 18053666872396607318
12236239 1 17676205732828356282
12363563 72 18338520845390468915
12553582 1 18335422383079402043
12788726 201 18187641337300532121
13140716 1 18339079393340139273
13288520 33 18410009940308579395
13862211 1 18410289242354007383
14386348 63 17917992754818192534
14790565 3 17763186834971878929
15196674 1 18337951294098693961
15961568 22 18336260267091762604
16752209 62 18261386724325207555
16945 1 18409726227938926049
17138139 8 17532082985083390723
17349148 13 17385719171601143218
17492 89 17907293605117387543
17804303 29 18412823599249003441
1813 80 18412549841927571013
18222031 100 18270677688170113671
19141452 34 17775002427494233167
193927 3 18341338906756936155
19862831 5 17530686498194398818
200 152 16588022381663776488
20028762 73 18057885956073817583
20374829 77 18410572903236631871
20871999 31 18337117786637799036
21033648 29 17131255892312039915
21033650 10 18046089085349049940
21065201 7 18341891827797866298
21267235 1 18335986445693298475
21728266 224 18188759570664201938
2297311 6 18412833473088575574
23175994 123 17346881152422268889
23366157 5 17897725602754440013
23402539 116 18408315575399129671
23557571 272 18272649000812649592
23559900 14 18413386519095611444
3004659 81 18040430018584867655
314173 85 18272092703678835857
335352 9 18409726267052334141
465052 167 18266466588748397503
474 4 17023763350005520324
5104073 3 18341336712149552321
573450 72 18187920621695786632
602551 16 18412824668690624378
67856867 119 18187367683775908276
7364860 26 18126285491440728585
7495541 125 18202279217511116160
77492 1 17531530876096207384
7970288 3 18337387253029349179
9709674 26 18199470952612142918

>  <PUBCHEM_SHAPE_MULTIPOLES>
396.95
10.64
2.28
1.08
3.76
1.07
-0.1
-6.17
-0.53
-2.96
-0.07
1.72
-0.2
0.22

>  <PUBCHEM_SHAPE_SELFOVERLAP>
888.737

>  <PUBCHEM_SHAPE_VOLUME>
209.3

>  <RI>
-1.06822e+09

>  <Rbt.Current_Directory>
/root/miniconda3/envs/rdock/share/rxdock-2013.1.1_148c5bd1-0/data/ligands/prepped_ligands/Fisetin

>  <Rbt.Executable>
rbdock/0.1.0

>  <Rbt.Library>
librxdock.so/0.1.0

>  <Rbt.Parameter_File>
/root/miniconda3/envs/rdock/share/rxdock-2013.1.1_148c5bd1-0/data/scripts/dock.prm

>  <Rbt.Receptor>
def.prm

>  <SCORE>
-17.3386

>  <SCORE.INTER>
-16.164

>  <SCORE.INTER.CONST>
1

>  <SCORE.INTER.POLAR>
-1.81837

>  <SCORE.INTER.REPUL>
0.074943

>  <SCORE.INTER.ROT>
1

>  <SCORE.INTER.VDW>
-16.7562

>  <SCORE.INTER.norm>
-0.769713

>  <SCORE.INTRA>
-0.228462

>  <SCORE.INTRA.DIHEDRAL>
0.287562

>  <SCORE.INTRA.DIHEDRAL.0>
6.17317

>  <SCORE.INTRA.POLAR>
0

>  <SCORE.INTRA.POLAR.0>
0

>  <SCORE.INTRA.REPUL>
0

>  <SCORE.INTRA.REPUL.0>
0

>  <SCORE.INTRA.VDW>
-0.372243

>  <SCORE.INTRA.VDW.0>
0.491979

>  <SCORE.INTRA.norm>
-0.0108791

>  <SCORE.RESTR>
0

>  <SCORE.RESTR.CAVITY>
0

>  <SCORE.RESTR.norm>
0

>  <SCORE.SYSTEM>
-0.94615

>  <SCORE.SYSTEM.CONST>
0

>  <SCORE.SYSTEM.DIHEDRAL>
0.0622342

>  <SCORE.SYSTEM.VDW>
-0.977267

>  <SCORE.SYSTEM.norm>
-0.0450548

>  <SCORE.heavy>
21

>  <SCORE.norm>
-0.825647

$$$$
5281614
  RxDock  02242112573D
librxdock.so/0.1.0
 25 27  0  0  0  0  0  0  0  0999 V2000
  -52.3571   -3.7630   14.8596 O   0  0  0  0  0  0
  -53.0270   -4.9833   18.2728 O   0  0  0  0  0  0
  -51.4793   -2.7117   18.6974 O   0  0  0  0  0  0
  -49.9210   -0.0791   13.1200 O   0  0  0  0  0  0
  -54.1548   -9.1438   16.5181 O   0  0  0  0  0  0
  -55.9092   -8.9380   14.3729 O   0  0  0  0  0  0
  -52.8276   -4.4980   15.9362 C   0  0  0  0  0  0
  -51.2597   -2.2390   16.3974 C   0  0  0  0  0  0
  -51.5929   -2.6526   15.1094 C   0  0  0  0  0  0
  -53.6329   -5.6631   15.5289 C   0  0  0  0  0  0
  -52.5709   -4.2120   17.2258 C   0  0  0  0  0  0
  -51.7444   -3.0227   17.5439 C   0  0  0  0  0  0
  -50.4760   -1.0988   16.5917 C   0  0  0  0  0  0
  -51.1434   -1.9276   14.0055 C   0  0  0  0  0  0
  -53.5160   -6.8688   16.2209 C   0  0  0  0  0  0
  -54.5128   -5.5607   14.4511 C   0  0  0  0  0  0
  -50.3608   -0.7886   14.1953 C   0  0  0  0  0  0
  -50.0280   -0.3751   15.4860 C   0  0  0  0  0  0
  -54.2785   -7.9715   15.8357 C   0  0  0  0  0  0
  -55.2751   -6.6635   14.0656 C   0  0  0  0  0  0
  -55.1581   -7.8688   14.7580 C   0  0  0  0  0  0
  -52.8517   -4.5333   19.1147 H   0  0  0  0  0  0
  -49.4318    0.7003   13.4354 H   0  0  0  0  0  0
  -54.6675   -9.8374   16.0726 H   0  0  0  0  0  0
  -56.5283   -8.6687   13.6754 H   0  0  0  0  0  0
  1  7  1  0  0  0
  1  9  1  0  0  0
  2 11  1  0  0  0
  2 22  1  0  0  0
  3 12  2  0  0  0
  4 17  1  0  0  0
  4 23  1  0  0  0
  5 19  1  0  0  0
  5 24  1  0  0  0
  6 21  1  0  0  0
  6 25  1  0  0  0
  7 10  1  0  0  0
  7 11  2  0  0  0
  8  9  2  0  0  0
  8 12  1  0  0  0
  8 13  1  0  0  0
  9 14  1  0  0  0
 10 15  2  0  0  0
 10 16  1  0  0  0
 11 12  1  0  0  0
 13 18  2  0  0  0
 14 17  2  0  0  0
 15 19  1  0  0  0
 16 20  2  0  0  0
 17 18  1  0  0  0
 19 21  2  0  0  0
 20 21  1  0  0  0
M  END
>  <CHROM.0>
-60.00297828,-61.47640022,-66.89039288

>  <CHROM.1>
-171.25434490,177.24003845,-173.55506193,174.04863977,141.05725010,-52.65220845
-4.39030357,15.68788452,0.21615588,-0.99896463,-1.33023259

>  <Name>
5281614

>  <PUBCHEM_ATOM_DEF_STEREO_COUNT>
0

>  <PUBCHEM_ATOM_UDEF_STEREO_COUNT>
0

>  <PUBCHEM_BOND_DEF_STEREO_COUNT>
0

>  <PUBCHEM_BOND_UDEF_STEREO_COUNT>
0

>  <PUBCHEM_CACTVS_TAUTO_COUNT>
211

>  <PUBCHEM_COMPONENT_COUNT>
1

>  <PUBCHEM_COMPOUND_CID>
5281614

>  <PUBCHEM_CONFORMER_DIVERSEORDER>
1
3
2
4

>  <PUBCHEM_CONFORMER_ID>
0050974E00000001

>  <PUBCHEM_CONFORMER_RMSD>
0.6

>  <PUBCHEM_COORDINATE_TYPE>
2
5
10

>  <PUBCHEM_EFFECTIVE_ROTOR_COUNT>
1

>  <PUBCHEM_FEATURE_SELFOVERLAP>
45.705

>  <PUBCHEM_HEAVY_ATOM_COUNT>
21

>  <PUBCHEM_ISOTOPIC_ATOM_COUNT>
0

>  <PUBCHEM_MMFF94_ENERGY>
63.3231

>  <PUBCHEM_MMFF94_PARTIAL_CHARGES>
31
1 -0.16
10 0.03
11 0.09
12 0.47
13 -0.15
14 -0.15
15 -0.15
16 -0.15
17 0.08
18 -0.15
19 0.08
2 -0.53
20 -0.15
21 0.08
22 0.15
23 0.15
24 0.15
25 0.15
26 0.15
27 0.15
28 0.45
29 0.45
3 -0.57
30 0.45
31 0.45
4 -0.53
5 -0.53
6 -0.53
7 0.05
8 0.09
9 0.08

>  <PUBCHEM_PHARMACOPHORE_FEATURES>
9
1 1 acceptor
1 2 donor
1 3 acceptor
1 4 donor
1 5 donor
1 6 donor
6 1 7 8 9 11 12 rings
6 10 15 16 19 20 21 rings
6 8 9 13 14 17 18 rings

>  <PUBCHEM_SHAPE_FINGERPRINT>
10319926 262 18197191691463025650
11046707 91 18409165524084290187
11370993 144 16916795041429104491
11543360 7 15574712534293567507
11552529 35 14619643787438718685
11796584 16 18053666872396607318
12236239 1 17676205732828356282
12363563 72 18338520845390468915
12553582 1 18335422383079402043
12788726 201 18187641337300532121
13140716 1 18339079393340139273
13288520 33 18410009940308579395
13862211 1 18410289242354007383
14386348 63 17917992754818192534
14790565 3 17763186834971878929
15196674 1 18337951294098693961
15961568 22 18336260267091762604
16752209 62 18261386724325207555
16945 1 18409726227938926049
17138139 8 17532082985083390723
17349148 13 17385719171601143218
17492 89 17907293605117387543
17804303 29 18412823599249003441
1813 80 18412549841927571013
18222031 100 18270677688170113671
19141452 34 17775002427494233167
193927 3 18341338906756936155
19862831 5 17530686498194398818
200 152 16588022381663776488
20028762 73 18057885956073817583
20374829 77 18410572903236631871
20871999 31 18337117786637799036
21033648 29 17131255892312039915
21033650 10 18046089085349049940
21065201 7 18341891827797866298
21267235 1 18335986445693298475
21728266 224 18188759570664201938
2297311 6 18412833473088575574
23175994 123 17346881152422268889
23366157 5 17897725602754440013
23402539 116 18408315575399129671
23557571 272 18272649000812649592
23559900 14 18413386519095611444
3004659 81 18040430018584867655
314173 85 18272092703678835857
335352 9 18409726267052334141
465052 167 18266466588748397503
474 4 17023763350005520324
5104073 3 18341336712149552321
573450 72 18187920621695786632
602551 16 18412824668690624378
67856867 119 18187367683775908276
7364860 26 18126285491440728585
7495541 125 18202279217511116160
77492 1 17531530876096207384
7970288 3 18337387253029349179
9709674 26 18199470952612142918

>  <PUBCHEM_SHAPE_MULTIPOLES>
396.95
10.64
2.28
1.08
3.76
1.07
-0.1
-6.17
-0.53
-2.96
-0.07
1.72
-0.2
0.22

>  <PUBCHEM_SHAPE_SELFOVERLAP>
888.737

>  <PUBCHEM_SHAPE_VOLUME>
209.3

>  <RI>
-1.06822e+09

>  <Rbt.Current_Directory>
/root/miniconda3/envs/rdock/share/rxdock-2013.1.1_148c5bd1-0/data/ligands/prepped_ligands/Fisetin

>  <Rbt.Executable>
rbdock/0.1.0

>  <Rbt.Library>
librxdock.so/0.1.0

>  <Rbt.Parameter_File>
/root/miniconda3/envs/rdock/share/rxdock-2013.1.1_148c5bd1-0/data/scripts/dock.prm

>  <Rbt.Receptor>
def.prm

>  <SCORE>
-22.9825

>  <SCORE.INTER>
-19.6932

>  <SCORE.INTER.CONST>
1

>  <SCORE.INTER.POLAR>
-1.69085

>  <SCORE.INTER.REPUL>
0.0389221

>  <SCORE.INTER.ROT>
1

>  <SCORE.INTER.VDW>
-20.5389

>  <SCORE.INTER.norm>
-0.937769

>  <SCORE.INTRA>
-2.25551

>  <SCORE.INTRA.DIHEDRAL>
-4.07639

>  <SCORE.INTRA.DIHEDRAL.0>
6.17317

>  <SCORE.INTRA.POLAR>
-0.123268

>  <SCORE.INTRA.POLAR.0>
0

>  <SCORE.INTRA.REPUL>
0

>  <SCORE.INTRA.REPUL.0>
0

>  <SCORE.INTRA.VDW>
0.201795

>  <SCORE.INTRA.VDW.0>
0.491979

>  <SCORE.INTRA.norm>
-0.107405

>  <SCORE.RESTR>
0

>  <SCORE.RESTR.CAVITY>
0

>  <SCORE.RESTR.norm>
0

>  <SCORE.SYSTEM>
-1.03381

>  <SCORE.SYSTEM.CONST>
0

>  <SCORE.SYSTEM.DIHEDRAL>
0.132327

>  <SCORE.SYSTEM.VDW>
-1.09998

>  <SCORE.SYSTEM.norm>
-0.0492292

>  <SCORE.heavy>
21

>  <SCORE.norm>
-1.0944

$$$$
5281614
  RxDock  02242112573D
librxdock.so/0.1.0
 25 27  0  0  0  0  0  0  0  0999 V2000
  -47.6683   -0.8502   14.6540 O   0  0  0  0  0  0
  -51.0010   -1.6605   13.3034 O   0  0  0  0  0  0
  -50.4530   -3.8065   14.9858 O   0  0  0  0  0  0
  -44.7361   -3.0488   17.6707 O   0  0  0  0  0  0
  -51.2051    3.3020   12.7513 O   0  0  0  0  0  0
  -49.3339    3.8082   10.7603 O   0  0  0  0  0  0
  -48.8707   -0.7913   13.9673 C   0  0  0  0  0  0
  -48.3443   -2.9683   15.6279 C   0  0  0  0  0  0
  -47.4327   -1.9267   15.4695 C   0  0  0  0  0  0
  -48.9952    0.4141   13.1286 C   0  0  0  0  0  0
  -49.8295   -1.7335   14.0255 C   0  0  0  0  0  0
  -49.6164   -2.9184   14.8912 C   0  0  0  0  0  0
  -48.0496   -4.0416   16.4725 C   0  0  0  0  0  0
  -46.2182   -1.9520   16.1555 C   0  0  0  0  0  0
  -50.0513    1.3019   13.3349 C   0  0  0  0  0  0
  -48.0568    0.6679   12.1280 C   0  0  0  0  0  0
  -45.9203   -3.0217   16.9998 C   0  0  0  0  0  0
  -46.8344   -4.0642   17.1579 C   0  0  0  0  0  0
  -50.1690    2.4431   12.5415 C   0  0  0  0  0  0
  -48.1747    1.8089   11.3342 C   0  0  0  0  0  0
  -49.2306    2.6965   11.5410 C   0  0  0  0  0  0
  -51.5101   -2.4791   13.4172 H   0  0  0  0  0  0
  -44.1528   -3.7064   17.2539 H   0  0  0  0  0  0
  -51.0282    4.1442   12.3021 H   0  0  0  0  0  0
  -49.8804    3.6119    9.9824 H   0  0  0  0  0  0
  1  7  1  0  0  0
  1  9  1  0  0  0
  2 11  1  0  0  0
  2 22  1  0  0  0
  3 12  2  0  0  0
  4 17  1  0  0  0
  4 23  1  0  0  0
  5 19  1  0  0  0
  5 24  1  0  0  0
  6 21  1  0  0  0
  6 25  1  0  0  0
  7 10  1  0  0  0
  7 11  2  0  0  0
  8  9  2  0  0  0
  8 12  1  0  0  0
  8 13  1  0  0  0
  9 14  1  0  0  0
 10 15  2  0  0  0
 10 16  1  0  0  0
 11 12  1  0  0  0
 13 18  2  0  0  0
 14 17  2  0  0  0
 15 19  1  0  0  0
 16 20  2  0  0  0
 17 18  1  0  0  0
 19 21  2  0  0  0
 20 21  1  0  0  0
M  END
>  <CHROM.0>
57.44432782,-65.00920316,-57.37432744

>  <CHROM.1>
174.13913560,-105.95789508,165.03524391,-89.15787152,-121.40368328,-48.61462705
-0.73370122,14.20577129,-1.19101335,-0.33636377,-0.54333967

>  <Name>
5281614

>  <PUBCHEM_ATOM_DEF_STEREO_COUNT>
0

>  <PUBCHEM_ATOM_UDEF_STEREO_COUNT>
0

>  <PUBCHEM_BOND_DEF_STEREO_COUNT>
0

>  <PUBCHEM_BOND_UDEF_STEREO_COUNT>
0

>  <PUBCHEM_CACTVS_TAUTO_COUNT>
211

>  <PUBCHEM_COMPONENT_COUNT>
1

>  <PUBCHEM_COMPOUND_CID>
5281614

>  <PUBCHEM_CONFORMER_DIVERSEORDER>
1
3
2
4

>  <PUBCHEM_CONFORMER_ID>
0050974E00000001

>  <PUBCHEM_CONFORMER_RMSD>
0.6

>  <PUBCHEM_COORDINATE_TYPE>
2
5
10

>  <PUBCHEM_EFFECTIVE_ROTOR_COUNT>
1

>  <PUBCHEM_FEATURE_SELFOVERLAP>
45.705

>  <PUBCHEM_HEAVY_ATOM_COUNT>
21

>  <PUBCHEM_ISOTOPIC_ATOM_COUNT>
0

>  <PUBCHEM_MMFF94_ENERGY>
63.3231

>  <PUBCHEM_MMFF94_PARTIAL_CHARGES>
31
1 -0.16
10 0.03
11 0.09
12 0.47
13 -0.15
14 -0.15
15 -0.15
16 -0.15
17 0.08
18 -0.15
19 0.08
2 -0.53
20 -0.15
21 0.08
22 0.15
23 0.15
24 0.15
25 0.15
26 0.15
27 0.15
28 0.45
29 0.45
3 -0.57
30 0.45
31 0.45
4 -0.53
5 -0.53
6 -0.53
7 0.05
8 0.09
9 0.08

>  <PUBCHEM_PHARMACOPHORE_FEATURES>
9
1 1 acceptor
1 2 donor
1 3 acceptor
1 4 donor
1 5 donor
1 6 donor
6 1 7 8 9 11 12 rings
6 10 15 16 19 20 21 rings
6 8 9 13 14 17 18 rings

>  <PUBCHEM_SHAPE_FINGERPRINT>
10319926 262 18197191691463025650
11046707 91 18409165524084290187
11370993 144 16916795041429104491
11543360 7 15574712534293567507
11552529 35 14619643787438718685
11796584 16 18053666872396607318
12236239 1 17676205732828356282
12363563 72 18338520845390468915
12553582 1 18335422383079402043
12788726 201 18187641337300532121
13140716 1 18339079393340139273
13288520 33 18410009940308579395
13862211 1 18410289242354007383
14386348 63 17917992754818192534
14790565 3 17763186834971878929
15196674 1 18337951294098693961
15961568 22 18336260267091762604
16752209 62 18261386724325207555
16945 1 18409726227938926049
17138139 8 17532082985083390723
17349148 13 17385719171601143218
17492 89 17907293605117387543
17804303 29 18412823599249003441
1813 80 18412549841927571013
18222031 100 18270677688170113671
19141452 34 17775002427494233167
193927 3 18341338906756936155
19862831 5 17530686498194398818
200 152 16588022381663776488
20028762 73 18057885956073817583
20374829 77 18410572903236631871
20871999 31 18337117786637799036
21033648 29 17131255892312039915
21033650 10 18046089085349049940
21065201 7 18341891827797866298
21267235 1 18335986445693298475
21728266 224 18188759570664201938
2297311 6 18412833473088575574
23175994 123 17346881152422268889
23366157 5 17897725602754440013
23402539 116 18408315575399129671
23557571 272 18272649000812649592
23559900 14 18413386519095611444
3004659 81 18040430018584867655
314173 85 18272092703678835857
335352 9 18409726267052334141
465052 167 18266466588748397503
474 4 17023763350005520324
5104073 3 18341336712149552321
573450 72 18187920621695786632
602551 16 18412824668690624378
67856867 119 18187367683775908276
7364860 26 18126285491440728585
7495541 125 18202279217511116160
77492 1 17531530876096207384
7970288 3 18337387253029349179
9709674 26 18199470952612142918

>  <PUBCHEM_SHAPE_MULTIPOLES>
396.95
10.64
2.28
1.08
3.76
1.07
-0.1
-6.17
-0.53
-2.96
-0.07
1.72
-0.2
0.22

>  <PUBCHEM_SHAPE_SELFOVERLAP>
888.737

>  <PUBCHEM_SHAPE_VOLUME>
209.3

>  <RI>
-1.06822e+09

>  <Rbt.Current_Directory>
/root/miniconda3/envs/rdock/share/rxdock-2013.1.1_148c5bd1-0/data/ligands/prepped_ligands/Fisetin

>  <Rbt.Executable>
rbdock/0.1.0

>  <Rbt.Library>
librxdock.so/0.1.0

>  <Rbt.Parameter_File>
/root/miniconda3/envs/rdock/share/rxdock-2013.1.1_148c5bd1-0/data/scripts/dock.prm

>  <Rbt.Receptor>
def.prm

>  <SCORE>
-22.4788

>  <SCORE.INTER>
-23.5533

>  <SCORE.INTER.CONST>
1

>  <SCORE.INTER.POLAR>
-2.7146

>  <SCORE.INTER.REPUL>
0

>  <SCORE.INTER.ROT>
1

>  <SCORE.INTER.VDW>
-20.7236

>  <SCORE.INTER.norm>
-1.12158

>  <SCORE.INTRA>
1.95028

>  <SCORE.INTRA.DIHEDRAL>
6.96402

>  <SCORE.INTRA.DIHEDRAL.0>
6.17317

>  <SCORE.INTRA.POLAR>
-0.00959861

>  <SCORE.INTRA.POLAR.0>
0

>  <SCORE.INTRA.REPUL>
0

>  <SCORE.INTRA.REPUL.0>
0

>  <SCORE.INTRA.VDW>
-1.49909

>  <SCORE.INTRA.VDW.0>
0.491979

>  <SCORE.INTRA.norm>
0.0928707

>  <SCORE.RESTR>
0.139652

>  <SCORE.RESTR.CAVITY>
0.139652

>  <SCORE.RESTR.norm>
0.00665007

>  <SCORE.SYSTEM>
-1.01548

>  <SCORE.SYSTEM.CONST>
0

>  <SCORE.SYSTEM.DIHEDRAL>
0.15614

>  <SCORE.SYSTEM.POLAR>
-0.00695394

>  <SCORE.SYSTEM.VDW>
-1.0699

>  <SCORE.SYSTEM.norm>
-0.048356

>  <SCORE.heavy>
21

>  <SCORE.norm>
-1.07042

$$$$
5281614
  RxDock  02242112573D
librxdock.so/0.1.0
 25 27  0  0  0  0  0  0  0  0999 V2000
  -52.6982   -3.9580   17.0871 O   0  0  0  0  0  0
  -51.4403   -7.1613   18.4078 O   0  0  0  0  0  0
  -49.9006   -5.2693   19.7438 O   0  0  0  0  0  0
  -51.5628    0.5819   17.8820 O   0  0  0  0  0  0
  -54.1994   -9.7143   16.1366 O   0  0  0  0  0  0
  -55.9671   -8.5724   14.3220 O   0  0  0  0  0  0
  -52.5211   -5.3085   17.3430 C   0  0  0  0  0  0
  -50.9448   -3.4397   18.6835 C   0  0  0  0  0  0
  -51.9164   -3.0562   17.7616 C   0  0  0  0  0  0
  -53.4220   -6.1663   16.5528 C   0  0  0  0  0  0
  -51.6136   -5.8099   18.2006 C   0  0  0  0  0  0
  -50.7425   -4.8722   18.9494 C   0  0  0  0  0  0
  -50.1762   -2.4758   19.3408 C   0  0  0  0  0  0
  -52.1258   -1.7039   17.4903 C   0  0  0  0  0  0
  -53.3888   -7.5513   16.7166 C   0  0  0  0  0  0
  -54.3087   -5.5936   15.6406 C   0  0  0  0  0  0
  -51.3606   -0.7384   18.1446 C   0  0  0  0  0  0
  -50.3878   -1.1238   19.0680 C   0  0  0  0  0  0
  -54.2418   -8.3633   15.9691 C   0  0  0  0  0  0
  -55.1614   -6.4055   14.8927 C   0  0  0  0  0  0
  -55.1281   -7.7903   15.0570 C   0  0  0  0  0  0
  -50.6113   -7.3178   18.8877 H   0  0  0  0  0  0
  -52.5197    0.7508   17.8347 H   0  0  0  0  0  0
  -55.1001  -10.0755   16.1126 H   0  0  0  0  0  0
  -55.8439   -9.5038   14.5663 H   0  0  0  0  0  0
  1  7  1  0  0  0
  1  9  1  0  0  0
  2 11  1  0  0  0
  2 22  1  0  0  0
  3 12  2  0  0  0
  4 17  1  0  0  0
  4 23  1  0  0  0
  5 19  1  0  0  0
  5 24  1  0  0  0
  6 21  1  0  0  0
  6 25  1  0  0  0
  7 10  1  0  0  0
  7 11  2  0  0  0
  8  9  2  0  0  0
  8 12  1  0  0  0
  8 13  1  0  0  0
  9 14  1  0  0  0
 10 15  2  0  0  0
 10 16  1  0  0  0
 11 12  1  0  0  0
 13 18  2  0  0  0
 14 17  2  0  0  0
 15 19  1  0  0  0
 16 20  2  0  0  0
 17 18  1  0  0  0
 19 21  2  0  0  0
 20 21  1  0  0  0
M  END
>  <CHROM.0>
-57.33614286,178.85614412,-59.40222688

>  <CHROM.1>
166.37350521,42.54372780,140.38642810,1.57448105,-178.59192487,-52.55668547
-5.03923809,17.29207139,0.89880845,-0.74512226,-0.06023006

>  <Name>
5281614

>  <PUBCHEM_ATOM_DEF_STEREO_COUNT>
0

>  <PUBCHEM_ATOM_UDEF_STEREO_COUNT>
0

>  <PUBCHEM_BOND_DEF_STEREO_COUNT>
0

>  <PUBCHEM_BOND_UDEF_STEREO_COUNT>
0

>  <PUBCHEM_CACTVS_TAUTO_COUNT>
211

>  <PUBCHEM_COMPONENT_COUNT>
1

>  <PUBCHEM_COMPOUND_CID>
5281614

>  <PUBCHEM_CONFORMER_DIVERSEORDER>
1
3
2
4

>  <PUBCHEM_CONFORMER_ID>
0050974E00000001

>  <PUBCHEM_CONFORMER_RMSD>
0.6

>  <PUBCHEM_COORDINATE_TYPE>
2
5
10

>  <PUBCHEM_EFFECTIVE_ROTOR_COUNT>
1

>  <PUBCHEM_FEATURE_SELFOVERLAP>
45.705

>  <PUBCHEM_HEAVY_ATOM_COUNT>
21

>  <PUBCHEM_ISOTOPIC_ATOM_COUNT>
0

>  <PUBCHEM_MMFF94_ENERGY>
63.3231

>  <PUBCHEM_MMFF94_PARTIAL_CHARGES>
31
1 -0.16
10 0.03
11 0.09
12 0.47
13 -0.15
14 -0.15
15 -0.15
16 -0.15
17 0.08
18 -0.15
19 0.08
2 -0.53
20 -0.15
21 0.08
22 0.15
23 0.15
24 0.15
25 0.15
26 0.15
27 0.15
28 0.45
29 0.45
3 -0.57
30 0.45
31 0.45
4 -0.53
5 -0.53
6 -0.53
7 0.05
8 0.09
9 0.08

>  <PUBCHEM_PHARMACOPHORE_FEATURES>
9
1 1 acceptor
1 2 donor
1 3 acceptor
1 4 donor
1 5 donor
1 6 donor
6 1 7 8 9 11 12 rings
6 10 15 16 19 20 21 rings
6 8 9 13 14 17 18 rings

>  <PUBCHEM_SHAPE_FINGERPRINT>
10319926 262 18197191691463025650
11046707 91 18409165524084290187
11370993 144 16916795041429104491
11543360 7 15574712534293567507
11552529 35 14619643787438718685
11796584 16 18053666872396607318
12236239 1 17676205732828356282
12363563 72 18338520845390468915
12553582 1 18335422383079402043
12788726 201 18187641337300532121
13140716 1 18339079393340139273
13288520 33 18410009940308579395
13862211 1 18410289242354007383
14386348 63 17917992754818192534
14790565 3 17763186834971878929
15196674 1 18337951294098693961
15961568 22 18336260267091762604
16752209 62 18261386724325207555
16945 1 18409726227938926049
17138139 8 17532082985083390723
17349148 13 17385719171601143218
17492 89 17907293605117387543
17804303 29 18412823599249003441
1813 80 18412549841927571013
18222031 100 18270677688170113671
19141452 34 17775002427494233167
193927 3 18341338906756936155
19862831 5 17530686498194398818
200 152 16588022381663776488
20028762 73 18057885956073817583
20374829 77 18410572903236631871
20871999 31 18337117786637799036
21033648 29 17131255892312039915
21033650 10 18046089085349049940
21065201 7 18341891827797866298
21267235 1 18335986445693298475
21728266 224 18188759570664201938
2297311 6 18412833473088575574
23175994 123 17346881152422268889
23366157 5 17897725602754440013
23402539 116 18408315575399129671
23557571 272 18272649000812649592
23559900 14 18413386519095611444
3004659 81 18040430018584867655
314173 85 18272092703678835857
335352 9 18409726267052334141
465052 167 18266466588748397503
474 4 17023763350005520324
5104073 3 18341336712149552321
573450 72 18187920621695786632
602551 16 18412824668690624378
67856867 119 18187367683775908276
7364860 26 18126285491440728585
7495541 125 18202279217511116160
77492 1 17531530876096207384
7970288 3 18337387253029349179
9709674 26 18199470952612142918

>  <PUBCHEM_SHAPE_MULTIPOLES>
396.95
10.64
2.28
1.08
3.76
1.07
-0.1
-6.17
-0.53
-2.96
-0.07
1.72
-0.2
0.22

>  <PUBCHEM_SHAPE_SELFOVERLAP>
888.737

>  <PUBCHEM_SHAPE_VOLUME>
209.3

>  <RI>
-1.06822e+09

>  <Rbt.Current_Directory>
/root/miniconda3/envs/rdock/share/rxdock-2013.1.1_148c5bd1-0/data/ligands/prepped_ligands/Fisetin

>  <Rbt.Executable>
rbdock/0.1.0

>  <Rbt.Library>
librxdock.so/0.1.0

>  <Rbt.Parameter_File>
/root/miniconda3/envs/rdock/share/rxdock-2013.1.1_148c5bd1-0/data/scripts/dock.prm

>  <Rbt.Receptor>
def.prm

>  <SCORE>
-17.3224

>  <SCORE.INTER>
-17.0366

>  <SCORE.INTER.CONST>
1

>  <SCORE.INTER.POLAR>
-2.24463

>  <SCORE.INTER.REPUL>
0.0193975

>  <SCORE.INTER.ROT>
1

>  <SCORE.INTER.VDW>
-15.9018

>  <SCORE.INTER.norm>
-0.811265

>  <SCORE.INTRA>
0.776925

>  <SCORE.INTRA.DIHEDRAL>
-1.76282

>  <SCORE.INTRA.DIHEDRAL.0>
6.17317

>  <SCORE.INTRA.POLAR>
0

>  <SCORE.INTRA.POLAR.0>
0

>  <SCORE.INTRA.REPUL>
0

>  <SCORE.INTRA.REPUL.0>
0

>  <SCORE.INTRA.VDW>
1.65833

>  <SCORE.INTRA.VDW.0>
0.491979

>  <SCORE.INTRA.norm>
0.0369964

>  <SCORE.RESTR>
0

>  <SCORE.RESTR.CAVITY>
0

>  <SCORE.RESTR.norm>
0

>  <SCORE.SYSTEM>
-1.06273

>  <SCORE.SYSTEM.CONST>
0

>  <SCORE.SYSTEM.DIHEDRAL>
0.0225671

>  <SCORE.SYSTEM.POLAR>
-0.0022997

>  <SCORE.SYSTEM.VDW>
-1.0662

>  <SCORE.SYSTEM.norm>
-0.0506063

>  <SCORE.heavy>
21

>  <SCORE.norm>
-0.824875

$$$$
5281614
  RxDock  02242112573D
librxdock.so/0.1.0
 25 27  0  0  0  0  0  0  0  0999 V2000
  -52.3506   -3.6811   14.8558 O   0  0  0  0  0  0
  -52.9559   -4.8177   18.3097 O   0  0  0  0  0  0
  -51.4181   -2.5254   18.6504 O   0  0  0  0  0  0
  -49.9700   -0.0266   12.9825 O   0  0  0  0  0  0
  -53.9066   -9.0973   16.5139 O   0  0  0  0  0  0
  -55.8732   -8.8910   14.5616 O   0  0  0  0  0  0
  -52.7981   -4.3914   15.9585 C   0  0  0  0  0  0
  -51.2394   -2.1105   16.3357 C   0  0  0  0  0  0
  -51.5905   -2.5594   15.0645 C   0  0  0  0  0  0
  -53.6014   -5.5720   15.5945 C   0  0  0  0  0  0
  -52.5226   -4.0705   17.2359 C   0  0  0  0  0  0
  -51.6997   -2.8677   17.5098 C   0  0  0  0  0  0
  -50.4609   -0.9604   16.4879 C   0  0  0  0  0  0
  -51.1643   -1.8601   13.9351 C   0  0  0  0  0  0
  -53.3760   -6.7929   16.2309 C   0  0  0  0  0  0
  -54.5879   -5.4693   14.6134 C   0  0  0  0  0  0
  -50.3871   -0.7112   14.0828 C   0  0  0  0  0  0
  -50.0363   -0.2624   15.3567 C   0  0  0  0  0  0
  -54.1367   -7.9104   15.8867 C   0  0  0  0  0  0
  -55.3483   -6.5868   14.2689 C   0  0  0  0  0  0
  -55.1228   -7.8073   14.9056 C   0  0  0  0  0  0
  -52.7845   -4.3380   19.1359 H   0  0  0  0  0  0
  -50.5942   -0.1898   12.2545 H   0  0  0  0  0  0
  -52.9536   -9.2111   16.6597 H   0  0  0  0  0  0
  -56.4121   -8.6815   13.7818 H   0  0  0  0  0  0
  1  7  1  0  0  0
  1  9  1  0  0  0
  2 11  1  0  0  0
  2 22  1  0  0  0
  3 12  2  0  0  0
  4 17  1  0  0  0
  4 23  1  0  0  0
  5 19  1  0  0  0
  5 24  1  0  0  0
  6 21  1  0  0  0
  6 25  1  0  0  0
  7 10  1  0  0  0
  7 11  2  0  0  0
  8  9  2  0  0  0
  8 12  1  0  0  0
  8 13  1  0  0  0
  9 14  1  0  0  0
 10 15  2  0  0  0
 10 16  1  0  0  0
 11 12  1  0  0  0
 13 18  2  0  0  0
 14 17  2  0  0  0
 15 19  1  0  0  0
 16 20  2  0  0  0
 17 18  1  0  0  0
 19 21  2  0  0  0
 20 21  1  0  0  0
M  END
>  <CHROM.0>
179.51337815,177.54208904,-64.00539656

>  <CHROM.1>
-170.25835748,26.01789749,-38.13813379,-171.60392512,135.03437810,-52.61597990
-4.29414703,15.69320738,0.26044039,-1.00649067,-1.31038107

>  <Name>
5281614

>  <PUBCHEM_ATOM_DEF_STEREO_COUNT>
0

>  <PUBCHEM_ATOM_UDEF_STEREO_COUNT>
0

>  <PUBCHEM_BOND_DEF_STEREO_COUNT>
0

>  <PUBCHEM_BOND_UDEF_STEREO_COUNT>
0

>  <PUBCHEM_CACTVS_TAUTO_COUNT>
211

>  <PUBCHEM_COMPONENT_COUNT>
1

>  <PUBCHEM_COMPOUND_CID>
5281614

>  <PUBCHEM_CONFORMER_DIVERSEORDER>
1
3
2
4

>  <PUBCHEM_CONFORMER_ID>
0050974E00000001

>  <PUBCHEM_CONFORMER_RMSD>
0.6

>  <PUBCHEM_COORDINATE_TYPE>
2
5
10

>  <PUBCHEM_EFFECTIVE_ROTOR_COUNT>
1

>  <PUBCHEM_FEATURE_SELFOVERLAP>
45.705

>  <PUBCHEM_HEAVY_ATOM_COUNT>
21

>  <PUBCHEM_ISOTOPIC_ATOM_COUNT>
0

>  <PUBCHEM_MMFF94_ENERGY>
63.3231

>  <PUBCHEM_MMFF94_PARTIAL_CHARGES>
31
1 -0.16
10 0.03
11 0.09
12 0.47
13 -0.15
14 -0.15
15 -0.15
16 -0.15
17 0.08
18 -0.15
19 0.08
2 -0.53
20 -0.15
21 0.08
22 0.15
23 0.15
24 0.15
25 0.15
26 0.15
27 0.15
28 0.45
29 0.45
3 -0.57
30 0.45
31 0.45
4 -0.53
5 -0.53
6 -0.53
7 0.05
8 0.09
9 0.08

>  <PUBCHEM_PHARMACOPHORE_FEATURES>
9
1 1 acceptor
1 2 donor
1 3 acceptor
1 4 donor
1 5 donor
1 6 donor
6 1 7 8 9 11 12 rings
6 10 15 16 19 20 21 rings
6 8 9 13 14 17 18 rings

>  <PUBCHEM_SHAPE_FINGERPRINT>
10319926 262 18197191691463025650
11046707 91 18409165524084290187
11370993 144 16916795041429104491
11543360 7 15574712534293567507
11552529 35 14619643787438718685
11796584 16 18053666872396607318
12236239 1 17676205732828356282
12363563 72 18338520845390468915
12553582 1 18335422383079402043
12788726 201 18187641337300532121
13140716 1 18339079393340139273
13288520 33 18410009940308579395
13862211 1 18410289242354007383
14386348 63 17917992754818192534
14790565 3 17763186834971878929
15196674 1 18337951294098693961
15961568 22 18336260267091762604
16752209 62 18261386724325207555
16945 1 18409726227938926049
17138139 8 17532082985083390723
17349148 13 17385719171601143218
17492 89 17907293605117387543
17804303 29 18412823599249003441
1813 80 18412549841927571013
18222031 100 18270677688170113671
19141452 34 17775002427494233167
193927 3 18341338906756936155
19862831 5 17530686498194398818
200 152 16588022381663776488
20028762 73 18057885956073817583
20374829 77 18410572903236631871
20871999 31 18337117786637799036
21033648 29 17131255892312039915
21033650 10 18046089085349049940
21065201 7 18341891827797866298
21267235 1 18335986445693298475
21728266 224 18188759570664201938
2297311 6 18412833473088575574
23175994 123 17346881152422268889
23366157 5 17897725602754440013
23402539 116 18408315575399129671
23557571 272 18272649000812649592
23559900 14 18413386519095611444
3004659 81 18040430018584867655
314173 85 18272092703678835857
335352 9 18409726267052334141
465052 167 18266466588748397503
474 4 17023763350005520324
5104073 3 18341336712149552321
573450 72 18187920621695786632
602551 16 18412824668690624378
67856867 119 18187367683775908276
7364860 26 18126285491440728585
7495541 125 18202279217511116160
77492 1 17531530876096207384
7970288 3 18337387253029349179
9709674 26 18199470952612142918

>  <PUBCHEM_SHAPE_MULTIPOLES>
396.95
10.64
2.28
1.08
3.76
1.07
-0.1
-6.17
-0.53
-2.96
-0.07
1.72
-0.2
0.22

>  <PUBCHEM_SHAPE_SELFOVERLAP>
888.737

>  <PUBCHEM_SHAPE_VOLUME>
209.3

>  <RI>
-1.06822e+09

>  <Rbt.Current_Directory>
/root/miniconda3/envs/rdock/share/rxdock-2013.1.1_148c5bd1-0/data/ligands/prepped_ligands/Fisetin

>  <Rbt.Executable>
rbdock/0.1.0

>  <Rbt.Library>
librxdock.so/0.1.0

>  <Rbt.Parameter_File>
/root/miniconda3/envs/rdock/share/rxdock-2013.1.1_148c5bd1-0/data/scripts/dock.prm

>  <Rbt.Receptor>
def.prm

>  <SCORE>
-21.5075

>  <SCORE.INTER>
-19.8979

>  <SCORE.INTER.CONST>
1

>  <SCORE.INTER.POLAR>
-1.75867

>  <SCORE.INTER.REPUL>
0.0424284

>  <SCORE.INTER.ROT>
1

>  <SCORE.INTER.VDW>
-20.5306

>  <SCORE.INTER.norm>
-0.94752

>  <SCORE.INTRA>
-0.554927

>  <SCORE.INTRA.DIHEDRAL>
-0.809896

>  <SCORE.INTRA.DIHEDRAL.0>
6.17317

>  <SCORE.INTRA.POLAR>
0

>  <SCORE.INTRA.POLAR.0>
0

>  <SCORE.INTRA.REPUL>
0

>  <SCORE.INTRA.REPUL.0>
0

>  <SCORE.INTRA.VDW>
-0.149979

>  <SCORE.INTRA.VDW.0>
0.491979

>  <SCORE.INTRA.norm>
-0.0264251

>  <SCORE.RESTR>
0

>  <SCORE.RESTR.CAVITY>
0

>  <SCORE.RESTR.norm>
0

>  <SCORE.SYSTEM>
-1.05461

>  <SCORE.SYSTEM.CONST>
0

>  <SCORE.SYSTEM.DIHEDRAL>
0.0735971

>  <SCORE.SYSTEM.VDW>
-1.09141

>  <SCORE.SYSTEM.norm>
-0.0502198

>  <SCORE.heavy>
21

>  <SCORE.norm>
-1.02416

$$$$
5281614
  RxDock  02242112573D
librxdock.so/0.1.0
 25 27  0  0  0  0  0  0  0  0999 V2000
  -47.7203   -1.4466   16.9392 O   0  0  0  0  0  0
  -51.0942   -0.0113   17.3197 O   0  0  0  0  0  0
  -49.4382    1.9565   18.3786 O   0  0  0  0  0  0
  -43.3677    0.0828   18.0557 O   0  0  0  0  0  0
  -53.0413   -3.1089   14.7370 O   0  0  0  0  0  0
  -51.8330   -5.6084   14.6177 O   0  0  0  0  0  0
  -49.0918   -1.2527   16.8908 C   0  0  0  0  0  0
  -47.4630    0.7312   17.9797 C   0  0  0  0  0  0
  -46.9379   -0.4558   17.4734 C   0  0  0  0  0  0
  -49.8127   -2.3917   16.2952 C   0  0  0  0  0  0
  -49.7244   -0.1587   17.3529 C   0  0  0  0  0  0
  -48.9190    0.9373   17.9437 C   0  0  0  0  0  0
  -46.6166    1.7061   18.5136 C   0  0  0  0  0  0
  -45.5605   -0.6761   17.4983 C   0  0  0  0  0  0
  -51.1011   -2.2152   15.7900 C   0  0  0  0  0  0
  -49.2071   -3.6471   16.2364 C   0  0  0  0  0  0
  -44.7121    0.2950   18.0304 C   0  0  0  0  0  0
  -45.2393    1.4836   18.5369 C   0  0  0  0  0  0
  -51.7834   -3.2931   15.2258 C   0  0  0  0  0  0
  -49.8896   -4.7252   15.6727 C   0  0  0  0  0  0
  -51.1776   -4.5482   15.1673 C   0  0  0  0  0  0
  -51.4143    0.2923   18.1843 H   0  0  0  0  0  0
  -42.9516    0.7640   18.6117 H   0  0  0  0  0  0
  -53.2174   -3.7556   14.0347 H   0  0  0  0  0  0
  -51.4604   -6.4368   14.9604 H   0  0  0  0  0  0
  1  7  1  0  0  0
  1  9  1  0  0  0
  2 11  1  0  0  0
  2 22  1  0  0  0
  3 12  2  0  0  0
  4 17  1  0  0  0
  4 23  1  0  0  0
  5 19  1  0  0  0
  5 24  1  0  0  0
  6 21  1  0  0  0
  6 25  1  0  0  0
  7 10  1  0  0  0
  7 11  2  0  0  0
  8  9  2  0  0  0
  8 12  1  0  0  0
  8 13  1  0  0  0
  9 14  1  0  0  0
 10 15  2  0  0  0
 10 16  1  0  0  0
 11 12  1  0  0  0
 13 18  2  0  0  0
 14 17  2  0  0  0
 15 19  1  0  0  0
 16 20  2  0  0  0
 17 18  1  0  0  0
 19 21  2  0  0  0
 20 21  1  0  0  0
M  END
>  <CHROM.0>
58.14602257,-61.16454387,56.27756554

>  <CHROM.1>
132.24678669,-168.72430640,152.99438586,-157.36296448,-159.97240072,-48.80188941
-1.27949212,16.86749795,-0.74668003,0.13918688,-2.72903994

>  <Name>
5281614

>  <PUBCHEM_ATOM_DEF_STEREO_COUNT>
0

>  <PUBCHEM_ATOM_UDEF_STEREO_COUNT>
0

>  <PUBCHEM_BOND_DEF_STEREO_COUNT>
0

>  <PUBCHEM_BOND_UDEF_STEREO_COUNT>
0

>  <PUBCHEM_CACTVS_TAUTO_COUNT>
211

>  <PUBCHEM_COMPONENT_COUNT>
1

>  <PUBCHEM_COMPOUND_CID>
5281614

>  <PUBCHEM_CONFORMER_DIVERSEORDER>
1
3
2
4

>  <PUBCHEM_CONFORMER_ID>
0050974E00000001

>  <PUBCHEM_CONFORMER_RMSD>
0.6

>  <PUBCHEM_COORDINATE_TYPE>
2
5
10

>  <PUBCHEM_EFFECTIVE_ROTOR_COUNT>
1

>  <PUBCHEM_FEATURE_SELFOVERLAP>
45.705

>  <PUBCHEM_HEAVY_ATOM_COUNT>
21

>  <PUBCHEM_ISOTOPIC_ATOM_COUNT>
0

>  <PUBCHEM_MMFF94_ENERGY>
63.3231

>  <PUBCHEM_MMFF94_PARTIAL_CHARGES>
31
1 -0.16
10 0.03
11 0.09
12 0.47
13 -0.15
14 -0.15
15 -0.15
16 -0.15
17 0.08
18 -0.15
19 0.08
2 -0.53
20 -0.15
21 0.08
22 0.15
23 0.15
24 0.15
25 0.15
26 0.15
27 0.15
28 0.45
29 0.45
3 -0.57
30 0.45
31 0.45
4 -0.53
5 -0.53
6 -0.53
7 0.05
8 0.09
9 0.08

>  <PUBCHEM_PHARMACOPHORE_FEATURES>
9
1 1 acceptor
1 2 donor
1 3 acceptor
1 4 donor
1 5 donor
1 6 donor
6 1 7 8 9 11 12 rings
6 10 15 16 19 20 21 rings
6 8 9 13 14 17 18 rings

>  <PUBCHEM_SHAPE_FINGERPRINT>
10319926 262 18197191691463025650
11046707 91 18409165524084290187
11370993 144 16916795041429104491
11543360 7 15574712534293567507
11552529 35 14619643787438718685
11796584 16 18053666872396607318
12236239 1 17676205732828356282
12363563 72 18338520845390468915
12553582 1 18335422383079402043
12788726 201 18187641337300532121
13140716 1 18339079393340139273
13288520 33 18410009940308579395
13862211 1 18410289242354007383
14386348 63 17917992754818192534
14790565 3 17763186834971878929
15196674 1 18337951294098693961
15961568 22 18336260267091762604
16752209 62 18261386724325207555
16945 1 18409726227938926049
17138139 8 17532082985083390723
17349148 13 17385719171601143218
17492 89 17907293605117387543
17804303 29 18412823599249003441
1813 80 18412549841927571013
18222031 100 18270677688170113671
19141452 34 17775002427494233167
193927 3 18341338906756936155
19862831 5 17530686498194398818
200 152 16588022381663776488
20028762 73 18057885956073817583
20374829 77 18410572903236631871
20871999 31 18337117786637799036
21033648 29 17131255892312039915
21033650 10 18046089085349049940
21065201 7 18341891827797866298
21267235 1 18335986445693298475
21728266 224 18188759570664201938
2297311 6 18412833473088575574
23175994 123 17346881152422268889
23366157 5 17897725602754440013
23402539 116 18408315575399129671
23557571 272 18272649000812649592
23559900 14 18413386519095611444
3004659 81 18040430018584867655
314173 85 18272092703678835857
335352 9 18409726267052334141
465052 167 18266466588748397503
474 4 17023763350005520324
5104073 3 18341336712149552321
573450 72 18187920621695786632
602551 16 18412824668690624378
67856867 119 18187367683775908276
7364860 26 18126285491440728585
7495541 125 18202279217511116160
77492 1 17531530876096207384
7970288 3 18337387253029349179
9709674 26 18199470952612142918

>  <PUBCHEM_SHAPE_MULTIPOLES>
396.95
10.64
2.28
1.08
3.76
1.07
-0.1
-6.17
-0.53
-2.96
-0.07
1.72
-0.2
0.22

>  <PUBCHEM_SHAPE_SELFOVERLAP>
888.737

>  <PUBCHEM_SHAPE_VOLUME>
209.3

>  <RI>
-1.06822e+09

>  <Rbt.Current_Directory>
/root/miniconda3/envs/rdock/share/rxdock-2013.1.1_148c5bd1-0/data/ligands/prepped_ligands/Fisetin

>  <Rbt.Executable>
rbdock/0.1.0

>  <Rbt.Library>
librxdock.so/0.1.0

>  <Rbt.Parameter_File>
/root/miniconda3/envs/rdock/share/rxdock-2013.1.1_148c5bd1-0/data/scripts/dock.prm

>  <Rbt.Receptor>
def.prm

>  <SCORE>
-12.3285

>  <SCORE.INTER>
-11.2658

>  <SCORE.INTER.CONST>
1

>  <SCORE.INTER.POLAR>
-1.46486

>  <SCORE.INTER.REPUL>
0

>  <SCORE.INTER.ROT>
1

>  <SCORE.INTER.VDW>
-12.6852

>  <SCORE.INTER.norm>
-0.536465

>  <SCORE.INTRA>
-0.0205804

>  <SCORE.INTRA.DIHEDRAL>
-1.09543

>  <SCORE.INTRA.DIHEDRAL.0>
6.17317

>  <SCORE.INTRA.POLAR>
-0.0221025

>  <SCORE.INTRA.POLAR.0>
0

>  <SCORE.INTRA.REPUL>
0

>  <SCORE.INTRA.REPUL.0>
0

>  <SCORE.INTRA.VDW>
0.602284

>  <SCORE.INTRA.VDW.0>
0.491979

>  <SCORE.INTRA.norm>
-0.00098002

>  <SCORE.RESTR>
0

>  <SCORE.RESTR.CAVITY>
0

>  <SCORE.RESTR.norm>
0

>  <SCORE.SYSTEM>
-1.04219

>  <SCORE.SYSTEM.CONST>
0

>  <SCORE.SYSTEM.DIHEDRAL>
0.0538297

>  <SCORE.SYSTEM.VDW>
-1.06911

>  <SCORE.SYSTEM.norm>
-0.0496282

>  <SCORE.heavy>
21

>  <SCORE.norm>
-0.587073

$$$$
5281614
  RxDock  02242112573D
librxdock.so/0.1.0
 25 27  0  0  0  0  0  0  0  0999 V2000
  -50.1789   -4.6277   15.9460 O   0  0  0  0  0  0
  -52.8261   -2.7683   14.1789 O   0  0  0  0  0  0
  -54.2005   -4.8877   15.3429 O   0  0  0  0  0  0
  -50.1535   -8.5760   18.5808 O   0  0  0  0  0  0
  -50.1921    0.8383   13.5201 O   0  0  0  0  0  0
  -47.4849    0.3294   13.1543 O   0  0  0  0  0  0
  -50.8607   -3.6804   15.1986 C   0  0  0  0  0  0
  -52.2662   -5.8048   16.3326 C   0  0  0  0  0  0
  -50.8906   -5.6606   16.4993 C   0  0  0  0  0  0
  -49.9793   -2.6281   14.6624 C   0  0  0  0  0  0
  -52.1837   -3.7088   14.9547 C   0  0  0  0  0  0
  -52.9935   -4.8103   15.5290 C   0  0  0  0  0  0
  -52.9394   -6.8792   16.9195 C   0  0  0  0  0  0
  -50.1779   -6.5919   17.2550 C   0  0  0  0  0  0
  -50.5033   -1.3761   14.3398 C   0  0  0  0  0  0
  -48.6203   -2.8836   14.4771 C   0  0  0  0  0  0
  -50.8463   -7.6659   17.8427 C   0  0  0  0  0  0
  -52.2243   -7.8090   17.6752 C   0  0  0  0  0  0
  -49.6689   -0.3798   13.8327 C   0  0  0  0  0  0
  -47.7860   -1.8875   13.9697 C   0  0  0  0  0  0
  -48.3103   -0.6356   13.6475 C   0  0  0  0  0  0
  -53.6894   -3.1092   13.8947 H   0  0  0  0  0  0
  -49.2259   -8.2899   18.6440 H   0  0  0  0  0  0
  -49.4944    1.4132   13.1665 H   0  0  0  0  0  0
  -46.7362   -0.0840   12.6949 H   0  0  0  0  0  0
  1  7  1  0  0  0
  1  9  1  0  0  0
  2 11  1  0  0  0
  2 22  1  0  0  0
  3 12  2  0  0  0
  4 17  1  0  0  0
  4 23  1  0  0  0
  5 19  1  0  0  0
  5 24  1  0  0  0
  6 21  1  0  0  0
  6 25  1  0  0  0
  7 10  1  0  0  0
  7 11  2  0  0  0
  8  9  2  0  0  0
  8 12  1  0  0  0
  8 13  1  0  0  0
  9 14  1  0  0  0
 10 15  2  0  0  0
 10 16  1  0  0  0
 11 12  1  0  0  0
 13 18  2  0  0  0
 14 17  2  0  0  0
 15 19  1  0  0  0
 16 20  2  0  0  0
 17 18  1  0  0  0
 19 21  2  0  0  0
 20 21  1  0  0  0
M  END
>  <CHROM.0>
-59.45690810,58.71210699,63.11797662

>  <CHROM.1>
162.00494963,3.94078597,-178.95595550,-152.74866710,-155.89593127,-50.71654852
-3.85116339,15.39248338,-1.90733633,-0.10494077,-0.53947086

>  <Name>
5281614

>  <PUBCHEM_ATOM_DEF_STEREO_COUNT>
0

>  <PUBCHEM_ATOM_UDEF_STEREO_COUNT>
0

>  <PUBCHEM_BOND_DEF_STEREO_COUNT>
0

>  <PUBCHEM_BOND_UDEF_STEREO_COUNT>
0

>  <PUBCHEM_CACTVS_TAUTO_COUNT>
211

>  <PUBCHEM_COMPONENT_COUNT>
1

>  <PUBCHEM_COMPOUND_CID>
5281614

>  <PUBCHEM_CONFORMER_DIVERSEORDER>
1
3
2
4

>  <PUBCHEM_CONFORMER_ID>
0050974E00000001

>  <PUBCHEM_CONFORMER_RMSD>
0.6

>  <PUBCHEM_COORDINATE_TYPE>
2
5
10

>  <PUBCHEM_EFFECTIVE_ROTOR_COUNT>
1

>  <PUBCHEM_FEATURE_SELFOVERLAP>
45.705

>  <PUBCHEM_HEAVY_ATOM_COUNT>
21

>  <PUBCHEM_ISOTOPIC_ATOM_COUNT>
0

>  <PUBCHEM_MMFF94_ENERGY>
63.3231

>  <PUBCHEM_MMFF94_PARTIAL_CHARGES>
31
1 -0.16
10 0.03
11 0.09
12 0.47
13 -0.15
14 -0.15
15 -0.15
16 -0.15
17 0.08
18 -0.15
19 0.08
2 -0.53
20 -0.15
21 0.08
22 0.15
23 0.15
24 0.15
25 0.15
26 0.15
27 0.15
28 0.45
29 0.45
3 -0.57
30 0.45
31 0.45
4 -0.53
5 -0.53
6 -0.53
7 0.05
8 0.09
9 0.08

>  <PUBCHEM_PHARMACOPHORE_FEATURES>
9
1 1 acceptor
1 2 donor
1 3 acceptor
1 4 donor
1 5 donor
1 6 donor
6 1 7 8 9 11 12 rings
6 10 15 16 19 20 21 rings
6 8 9 13 14 17 18 rings

>  <PUBCHEM_SHAPE_FINGERPRINT>
10319926 262 18197191691463025650
11046707 91 18409165524084290187
11370993 144 16916795041429104491
11543360 7 15574712534293567507
11552529 35 14619643787438718685
11796584 16 18053666872396607318
12236239 1 17676205732828356282
12363563 72 18338520845390468915
12553582 1 18335422383079402043
12788726 201 18187641337300532121
13140716 1 18339079393340139273
13288520 33 18410009940308579395
13862211 1 18410289242354007383
14386348 63 17917992754818192534
14790565 3 17763186834971878929
15196674 1 18337951294098693961
15961568 22 18336260267091762604
16752209 62 18261386724325207555
16945 1 18409726227938926049
17138139 8 17532082985083390723
17349148 13 17385719171601143218
17492 89 17907293605117387543
17804303 29 18412823599249003441
1813 80 18412549841927571013
18222031 100 18270677688170113671
19141452 34 17775002427494233167
193927 3 18341338906756936155
19862831 5 17530686498194398818
200 152 16588022381663776488
20028762 73 18057885956073817583
20374829 77 18410572903236631871
20871999 31 18337117786637799036
21033648 29 17131255892312039915
21033650 10 18046089085349049940
21065201 7 18341891827797866298
21267235 1 18335986445693298475
21728266 224 18188759570664201938
2297311 6 18412833473088575574
23175994 123 17346881152422268889
23366157 5 17897725602754440013
23402539 116 18408315575399129671
23557571 272 18272649000812649592
23559900 14 18413386519095611444
3004659 81 18040430018584867655
314173 85 18272092703678835857
335352 9 18409726267052334141
465052 167 18266466588748397503
474 4 17023763350005520324
5104073 3 18341336712149552321
573450 72 18187920621695786632
602551 16 18412824668690624378
67856867 119 18187367683775908276
7364860 26 18126285491440728585
7495541 125 18202279217511116160
77492 1 17531530876096207384
7970288 3 18337387253029349179
9709674 26 18199470952612142918

>  <PUBCHEM_SHAPE_MULTIPOLES>
396.95
10.64
2.28
1.08
3.76
1.07
-0.1
-6.17
-0.53
-2.96
-0.07
1.72
-0.2
0.22

>  <PUBCHEM_SHAPE_SELFOVERLAP>
888.737

>  <PUBCHEM_SHAPE_VOLUME>
209.3

>  <RI>
-1.06822e+09

>  <Rbt.Current_Directory>
/root/miniconda3/envs/rdock/share/rxdock-2013.1.1_148c5bd1-0/data/ligands/prepped_ligands/Fisetin

>  <Rbt.Executable>
rbdock/0.1.0

>  <Rbt.Library>
librxdock.so/0.1.0

>  <Rbt.Parameter_File>
/root/miniconda3/envs/rdock/share/rxdock-2013.1.1_148c5bd1-0/data/scripts/dock.prm

>  <Rbt.Receptor>
def.prm

>  <SCORE>
-22.7162

>  <SCORE.INTER>
-20.0875

>  <SCORE.INTER.CONST>
1

>  <SCORE.INTER.POLAR>
-2.53593

>  <SCORE.INTER.REPUL>
0.0494487

>  <SCORE.INTER.ROT>
1

>  <SCORE.INTER.VDW>
-18.1125

>  <SCORE.INTER.norm>
-0.956546

>  <SCORE.INTRA>
-1.71705

>  <SCORE.INTRA.DIHEDRAL>
-3.86768

>  <SCORE.INTRA.DIHEDRAL.0>
6.17317

>  <SCORE.INTRA.POLAR>
-0.116471

>  <SCORE.INTRA.POLAR.0>
0

>  <SCORE.INTRA.REPUL>
0

>  <SCORE.INTRA.REPUL.0>
0

>  <SCORE.INTRA.VDW>
0.612798

>  <SCORE.INTRA.VDW.0>
0.491979

>  <SCORE.INTRA.norm>
-0.0817641

>  <SCORE.RESTR>
0

>  <SCORE.RESTR.CAVITY>
0

>  <SCORE.RESTR.norm>
0

>  <SCORE.SYSTEM>
-0.911676

>  <SCORE.SYSTEM.CONST>
0

>  <SCORE.SYSTEM.DIHEDRAL>
0.0301105

>  <SCORE.SYSTEM.POLAR>
-0.00776563

>  <SCORE.SYSTEM.VDW>
-0.900328

>  <SCORE.SYSTEM.norm>
-0.0434131

>  <SCORE.heavy>
21

>  <SCORE.norm>
-1.08172

$$$$
5281614
  RxDock  02242112573D
librxdock.so/0.1.0
 25 27  0  0  0  0  0  0  0  0999 V2000
  -52.6903   -4.0068   16.9251 O   0  0  0  0  0  0
  -51.1594   -7.2114   17.9121 O   0  0  0  0  0  0
  -49.5584   -5.3209   19.1765 O   0  0  0  0  0  0
  -51.6619    0.5341   17.8496 O   0  0  0  0  0  0
  -54.3475   -9.7360   16.1625 O   0  0  0  0  0  0
  -56.0548   -8.6201   14.2753 O   0  0  0  0  0  0
  -52.4295   -5.3589   17.0817 C   0  0  0  0  0  0
  -50.7908   -3.4900   18.3451 C   0  0  0  0  0  0
  -51.8754   -3.1054   17.5599 C   0  0  0  0  0  0
  -53.3776   -6.2160   16.3479 C   0  0  0  0  0  0
  -51.4109   -5.8608   17.8035 C   0  0  0  0  0  0
  -50.5005   -4.9232   18.5042 C   0  0  0  0  0  0
  -49.9935   -2.5264   18.9678 C   0  0  0  0  0  0
  -52.1701   -1.7522   17.3916 C   0  0  0  0  0  0
  -53.4192   -7.5872   16.6015 C   0  0  0  0  0  0
  -54.2339   -5.6564   15.3993 C   0  0  0  0  0  0
  -51.3766   -0.7870   18.0118 C   0  0  0  0  0  0
  -50.2906   -1.1736   18.7983 C   0  0  0  0  0  0
  -54.3169   -8.3985   15.9073 C   0  0  0  0  0  0
  -55.1313   -6.4677   14.7048 C   0  0  0  0  0  0
  -55.1728   -7.8386   14.9589 C   0  0  0  0  0  0
  -50.2202   -7.3572   18.1093 H   0  0  0  0  0  0
  -52.6276    0.6458   17.8137 H   0  0  0  0  0  0
  -55.2669  -10.0268   16.2746 H   0  0  0  0  0  0
  -55.9375   -9.5485   14.5334 H   0  0  0  0  0  0
  1  7  1  0  0  0
  1  9  1  0  0  0
  2 11  1  0  0  0
  2 22  1  0  0  0
  3 12  2  0  0  0
  4 17  1  0  0  0
  4 23  1  0  0  0
  5 19  1  0  0  0
  5 24  1  0  0  0
  6 21  1  0  0  0
  6 25  1  0  0  0
  7 10  1  0  0  0
  7 11  2  0  0  0
  8  9  2  0  0  0
  8 12  1  0  0  0
  8 13  1  0  0  0
  9 14  1  0  0  0
 10 15  2  0  0  0
 10 16  1  0  0  0
 11 12  1  0  0  0
 13 18  2  0  0  0
 14 17  2  0  0  0
 15 19  1  0  0  0
 16 20  2  0  0  0
 17 18  1  0  0  0
 19 21  2  0  0  0
 20 21  1  0  0  0
M  END
>  <CHROM.0>
64.18825738,-60.81537005,48.87114472

>  <CHROM.1>
154.63040845,35.97871119,133.12604846,-2.49503751,-167.61034264,-52.49911937
-5.08699181,17.06993791,0.93475062,-0.65078752,-0.00308149

>  <Name>
5281614

>  <PUBCHEM_ATOM_DEF_STEREO_COUNT>
0

>  <PUBCHEM_ATOM_UDEF_STEREO_COUNT>
0

>  <PUBCHEM_BOND_DEF_STEREO_COUNT>
0

>  <PUBCHEM_BOND_UDEF_STEREO_COUNT>
0

>  <PUBCHEM_CACTVS_TAUTO_COUNT>
211

>  <PUBCHEM_COMPONENT_COUNT>
1

>  <PUBCHEM_COMPOUND_CID>
5281614

>  <PUBCHEM_CONFORMER_DIVERSEORDER>
1
3
2
4

>  <PUBCHEM_CONFORMER_ID>
0050974E00000001

>  <PUBCHEM_CONFORMER_RMSD>
0.6

>  <PUBCHEM_COORDINATE_TYPE>
2
5
10

>  <PUBCHEM_EFFECTIVE_ROTOR_COUNT>
1

>  <PUBCHEM_FEATURE_SELFOVERLAP>
45.705

>  <PUBCHEM_HEAVY_ATOM_COUNT>
21

>  <PUBCHEM_ISOTOPIC_ATOM_COUNT>
0

>  <PUBCHEM_MMFF94_ENERGY>
63.3231

>  <PUBCHEM_MMFF94_PARTIAL_CHARGES>
31
1 -0.16
10 0.03
11 0.09
12 0.47
13 -0.15
14 -0.15
15 -0.15
16 -0.15
17 0.08
18 -0.15
19 0.08
2 -0.53
20 -0.15
21 0.08
22 0.15
23 0.15
24 0.15
25 0.15
26 0.15
27 0.15
28 0.45
29 0.45
3 -0.57
30 0.45
31 0.45
4 -0.53
5 -0.53
6 -0.53
7 0.05
8 0.09
9 0.08

>  <PUBCHEM_PHARMACOPHORE_FEATURES>
9
1 1 acceptor
1 2 donor
1 3 acceptor
1 4 donor
1 5 donor
1 6 donor
6 1 7 8 9 11 12 rings
6 10 15 16 19 20 21 rings
6 8 9 13 14 17 18 rings

>  <PUBCHEM_SHAPE_FINGERPRINT>
10319926 262 18197191691463025650
11046707 91 18409165524084290187
11370993 144 16916795041429104491
11543360 7 15574712534293567507
11552529 35 14619643787438718685
11796584 16 18053666872396607318
12236239 1 17676205732828356282
12363563 72 18338520845390468915
12553582 1 18335422383079402043
12788726 201 18187641337300532121
13140716 1 18339079393340139273
13288520 33 18410009940308579395
13862211 1 18410289242354007383
14386348 63 17917992754818192534
14790565 3 17763186834971878929
15196674 1 18337951294098693961
15961568 22 18336260267091762604
16752209 62 18261386724325207555
16945 1 18409726227938926049
17138139 8 17532082985083390723
17349148 13 17385719171601143218
17492 89 17907293605117387543
17804303 29 18412823599249003441
1813 80 18412549841927571013
18222031 100 18270677688170113671
19141452 34 17775002427494233167
193927 3 18341338906756936155
19862831 5 17530686498194398818
200 152 16588022381663776488
20028762 73 18057885956073817583
20374829 77 18410572903236631871
20871999 31 18337117786637799036
21033648 29 17131255892312039915
21033650 10 18046089085349049940
21065201 7 18341891827797866298
21267235 1 18335986445693298475
21728266 224 18188759570664201938
2297311 6 18412833473088575574
23175994 123 17346881152422268889
23366157 5 17897725602754440013
23402539 116 18408315575399129671
23557571 272 18272649000812649592
23559900 14 18413386519095611444
3004659 81 18040430018584867655
314173 85 18272092703678835857
335352 9 18409726267052334141
465052 167 18266466588748397503
474 4 17023763350005520324
5104073 3 18341336712149552321
573450 72 18187920621695786632
602551 16 18412824668690624378
67856867 119 18187367683775908276
7364860 26 18126285491440728585
7495541 125 18202279217511116160
77492 1 17531530876096207384
7970288 3 18337387253029349179
9709674 26 18199470952612142918

>  <PUBCHEM_SHAPE_MULTIPOLES>
396.95
10.64
2.28
1.08
3.76
1.07
-0.1
-6.17
-0.53
-2.96
-0.07
1.72
-0.2
0.22

>  <PUBCHEM_SHAPE_SELFOVERLAP>
888.737

>  <PUBCHEM_SHAPE_VOLUME>
209.3

>  <RI>
-1.06822e+09

>  <Rbt.Current_Directory>
/root/miniconda3/envs/rdock/share/rxdock-2013.1.1_148c5bd1-0/data/ligands/prepped_ligands/Fisetin

>  <Rbt.Executable>
rbdock/0.1.0

>  <Rbt.Library>
librxdock.so/0.1.0

>  <Rbt.Parameter_File>
/root/miniconda3/envs/rdock/share/rxdock-2013.1.1_148c5bd1-0/data/scripts/dock.prm

>  <Rbt.Receptor>
def.prm

>  <SCORE>
-16.8661

>  <SCORE.INTER>
-16.4358

>  <SCORE.INTER.CONST>
1

>  <SCORE.INTER.POLAR>
-2.23643

>  <SCORE.INTER.REPUL>
0

>  <SCORE.INTER.ROT>
1

>  <SCORE.INTER.VDW>
-15.2319

>  <SCORE.INTER.norm>
-0.782656

>  <SCORE.INTRA>
0.420381

>  <SCORE.INTRA.DIHEDRAL>
-0.851912

>  <SCORE.INTRA.DIHEDRAL.0>
6.17317

>  <SCORE.INTRA.POLAR>
0

>  <SCORE.INTRA.POLAR.0>
0

>  <SCORE.INTRA.REPUL>
0

>  <SCORE.INTRA.REPUL.0>
0

>  <SCORE.INTRA.VDW>
0.846337

>  <SCORE.INTRA.VDW.0>
0.491979

>  <SCORE.INTRA.norm>
0.0200182

>  <SCORE.RESTR>
0

>  <SCORE.RESTR.CAVITY>
0

>  <SCORE.RESTR.norm>
0

>  <SCORE.SYSTEM>
-0.850715

>  <SCORE.SYSTEM.CONST>
0

>  <SCORE.SYSTEM.DIHEDRAL>
0.349112

>  <SCORE.SYSTEM.VDW>
-1.02527

>  <SCORE.SYSTEM.norm>
-0.0405102

>  <SCORE.heavy>
21

>  <SCORE.norm>
-0.803148

$$$$
5281614
  RxDock  02242112573D
librxdock.so/0.1.0
 25 27  0  0  0  0  0  0  0  0999 V2000
  -50.1824   -4.6942   15.8596 O   0  0  0  0  0  0
  -52.8374   -2.7489   14.1999 O   0  0  0  0  0  0
  -54.2247   -4.8557   15.3716 O   0  0  0  0  0  0
  -50.1690   -8.6834   18.4320 O   0  0  0  0  0  0
  -50.1685    0.7685   13.4008 O   0  0  0  0  0  0
  -47.4599    0.2462   13.0659 O   0  0  0  0  0  0
  -50.8642   -3.7203   15.1472 C   0  0  0  0  0  0
  -52.2835   -5.8308   16.2897 C   0  0  0  0  0  0
  -50.9007   -5.7197   16.4178 C   0  0  0  0  0  0
  -49.9752   -2.6794   14.6012 C   0  0  0  0  0  0
  -52.1940   -3.7156   14.9420 C   0  0  0  0  0  0
  -53.0113   -4.8079   15.5232 C   0  0  0  0  0  0
  -52.9633   -6.8993   16.8797 C   0  0  0  0  0  0
  -50.1874   -6.6784   17.1379 C   0  0  0  0  0  0
  -50.4929   -1.4313   14.2539 C   0  0  0  0  0  0
  -48.6156   -2.9415   14.4315 C   0  0  0  0  0  0
  -50.8625   -7.7466   17.7287 C   0  0  0  0  0  0
  -52.2477   -7.8566   17.5998 C   0  0  0  0  0  0
  -49.6515   -0.4458   13.7376 C   0  0  0  0  0  0
  -47.7742   -1.9562   13.9148 C   0  0  0  0  0  0
  -48.2921   -0.7083   13.5679 C   0  0  0  0  0  0
  -53.6826   -3.0943   13.8704 H   0  0  0  0  0  0
  -49.2192   -8.5714   18.2547 H   0  0  0  0  0  0
  -49.4943    1.2956   12.9425 H   0  0  0  0  0  0
  -46.6789   -0.1750   12.6721 H   0  0  0  0  0  0
  1  7  1  0  0  0
  1  9  1  0  0  0
  2 11  1  0  0  0
  2 22  1  0  0  0
  3 12  2  0  0  0
  4 17  1  0  0  0
  4 23  1  0  0  0
  5 19  1  0  0  0
  5 24  1  0  0  0
  6 21  1  0  0  0
  6 25  1  0  0  0
  7 10  1  0  0  0
  7 11  2  0  0  0
  8  9  2  0  0  0
  8 12  1  0  0  0
  8 13  1  0  0  0
  9 14  1  0  0  0
 10 15  2  0  0  0
 10 16  1  0  0  0
 11 12  1  0  0  0
 13 18  2  0  0  0
 14 17  2  0  0  0
 15 19  1  0  0  0
 16 20  2  0  0  0
 17 18  1  0  0  0
 19 21  2  0  0  0
 20 21  1  0  0  0
M  END
>  <CHROM.0>
-178.71661480,-179.50865516,-64.81453167

>  <CHROM.1>
157.04533396,-12.68139682,-171.90706949,-156.52988882,-158.93737760,-50.71946922
-3.90029463,15.32629687,-1.91035657,-0.07325457,-0.52926610

>  <Name>
5281614

>  <PUBCHEM_ATOM_DEF_STEREO_COUNT>
0

>  <PUBCHEM_ATOM_UDEF_STEREO_COUNT>
0

>  <PUBCHEM_BOND_DEF_STEREO_COUNT>
0

>  <PUBCHEM_BOND_UDEF_STEREO_COUNT>
0

>  <PUBCHEM_CACTVS_TAUTO_COUNT>
211

>  <PUBCHEM_COMPONENT_COUNT>
1

>  <PUBCHEM_COMPOUND_CID>
5281614

>  <PUBCHEM_CONFORMER_DIVERSEORDER>
1
3
2
4

>  <PUBCHEM_CONFORMER_ID>
0050974E00000001

>  <PUBCHEM_CONFORMER_RMSD>
0.6

>  <PUBCHEM_COORDINATE_TYPE>
2
5
10

>  <PUBCHEM_EFFECTIVE_ROTOR_COUNT>
1

>  <PUBCHEM_FEATURE_SELFOVERLAP>
45.705

>  <PUBCHEM_HEAVY_ATOM_COUNT>
21

>  <PUBCHEM_ISOTOPIC_ATOM_COUNT>
0

>  <PUBCHEM_MMFF94_ENERGY>
63.3231

>  <PUBCHEM_MMFF94_PARTIAL_CHARGES>
31
1 -0.16
10 0.03
11 0.09
12 0.47
13 -0.15
14 -0.15
15 -0.15
16 -0.15
17 0.08
18 -0.15
19 0.08
2 -0.53
20 -0.15
21 0.08
22 0.15
23 0.15
24 0.15
25 0.15
26 0.15
27 0.15
28 0.45
29 0.45
3 -0.57
30 0.45
31 0.45
4 -0.53
5 -0.53
6 -0.53
7 0.05
8 0.09
9 0.08

>  <PUBCHEM_PHARMACOPHORE_FEATURES>
9
1 1 acceptor
1 2 donor
1 3 acceptor
1 4 donor
1 5 donor
1 6 donor
6 1 7 8 9 11 12 rings
6 10 15 16 19 20 21 rings
6 8 9 13 14 17 18 rings

>  <PUBCHEM_SHAPE_FINGERPRINT>
10319926 262 18197191691463025650
11046707 91 18409165524084290187
11370993 144 16916795041429104491
11543360 7 15574712534293567507
11552529 35 14619643787438718685
11796584 16 18053666872396607318
12236239 1 17676205732828356282
12363563 72 18338520845390468915
12553582 1 18335422383079402043
12788726 201 18187641337300532121
13140716 1 18339079393340139273
13288520 33 18410009940308579395
13862211 1 18410289242354007383
14386348 63 17917992754818192534
14790565 3 17763186834971878929
15196674 1 18337951294098693961
15961568 22 18336260267091762604
16752209 62 18261386724325207555
16945 1 18409726227938926049
17138139 8 17532082985083390723
17349148 13 17385719171601143218
17492 89 17907293605117387543
17804303 29 18412823599249003441
1813 80 18412549841927571013
18222031 100 18270677688170113671
19141452 34 17775002427494233167
193927 3 18341338906756936155
19862831 5 17530686498194398818
200 152 16588022381663776488
20028762 73 18057885956073817583
20374829 77 18410572903236631871
20871999 31 18337117786637799036
21033648 29 17131255892312039915
21033650 10 18046089085349049940
21065201 7 18341891827797866298
21267235 1 18335986445693298475
21728266 224 18188759570664201938
2297311 6 18412833473088575574
23175994 123 17346881152422268889
23366157 5 17897725602754440013
23402539 116 18408315575399129671
23557571 272 18272649000812649592
23559900 14 18413386519095611444
3004659 81 18040430018584867655
314173 85 18272092703678835857
335352 9 18409726267052334141
465052 167 18266466588748397503
474 4 17023763350005520324
5104073 3 18341336712149552321
573450 72 18187920621695786632
602551 16 18412824668690624378
67856867 119 18187367683775908276
7364860 26 18126285491440728585
7495541 125 18202279217511116160
77492 1 17531530876096207384
7970288 3 18337387253029349179
9709674 26 18199470952612142918

>  <PUBCHEM_SHAPE_MULTIPOLES>
396.95
10.64
2.28
1.08
3.76
1.07
-0.1
-6.17
-0.53
-2.96
-0.07
1.72
-0.2
0.22

>  <PUBCHEM_SHAPE_SELFOVERLAP>
888.737

>  <PUBCHEM_SHAPE_VOLUME>
209.3

>  <RI>
-1.06822e+09

>  <Rbt.Current_Directory>
/root/miniconda3/envs/rdock/share/rxdock-2013.1.1_148c5bd1-0/data/ligands/prepped_ligands/Fisetin

>  <Rbt.Executable>
rbdock/0.1.0

>  <Rbt.Library>
librxdock.so/0.1.0

>  <Rbt.Parameter_File>
/root/miniconda3/envs/rdock/share/rxdock-2013.1.1_148c5bd1-0/data/scripts/dock.prm

>  <Rbt.Receptor>
def.prm

>  <SCORE>
-22.8816

>  <SCORE.INTER>
-20.3438

>  <SCORE.INTER.CONST>
1

>  <SCORE.INTER.POLAR>
-2.57439

>  <SCORE.INTER.REPUL>
0.070422

>  <SCORE.INTER.ROT>
1

>  <SCORE.INTER.VDW>
-18.343

>  <SCORE.INTER.norm>
-0.968752

>  <SCORE.INTRA>
-1.48734

>  <SCORE.INTRA.DIHEDRAL>
-3.72803

>  <SCORE.INTRA.DIHEDRAL.0>
6.17317

>  <SCORE.INTRA.POLAR>
-0.104899

>  <SCORE.INTRA.POLAR.0>
0

>  <SCORE.INTRA.REPUL>
0

>  <SCORE.INTRA.REPUL.0>
0

>  <SCORE.INTRA.VDW>
0.73333

>  <SCORE.INTRA.VDW.0>
0.491979

>  <SCORE.INTRA.norm>
-0.0708257

>  <SCORE.RESTR>
0.00170865

>  <SCORE.RESTR.CAVITY>
0.00170865

>  <SCORE.RESTR.norm>
8.13642e-05

>  <SCORE.SYSTEM>
-1.0522

>  <SCORE.SYSTEM.CONST>
0

>  <SCORE.SYSTEM.DIHEDRAL>
0.0652798

>  <SCORE.SYSTEM.VDW>
-1.08484

>  <SCORE.SYSTEM.norm>
-0.0501049

>  <SCORE.heavy>
21

>  <SCORE.norm>
-1.0896

$$$$
