5281614
  RxDock  02242101183D
librxdock.so/0.1.0
 25 27  0  0  0  0  0  0  0  0999 V2000
  -52.0464   -3.8249   14.8254 O   0  0  0  0  0  0
  -53.7219   -4.1416   18.0935 O   0  0  0  0  0  0
  -52.1609   -1.8592   18.3930 O   0  0  0  0  0  0
  -48.9243   -0.7303   13.0342 O   0  0  0  0  0  0
  -53.8627   -8.9614   16.6129 O   0  0  0  0  0  0
  -55.7625   -8.9023   14.5859 O   0  0  0  0  0  0
  -52.8530   -4.2599   15.8651 C   0  0  0  0  0  0
  -51.2837   -1.9807   16.2072 C   0  0  0  0  0  0
  -51.2875   -2.6987   15.0133 C   0  0  0  0  0  0
  -53.6130   -5.4778   15.5321 C   0  0  0  0  0  0
  -52.9339   -3.6639   17.0687 C   0  0  0  0  0  0
  -52.1273   -2.4451   17.3191 C   0  0  0  0  0  0
  -50.4886   -0.8399   16.3420 C   0  0  0  0  0  0
  -50.4943   -2.2800   13.9447 C   0  0  0  0  0  0
  -53.3801   -6.6600   16.2352 C   0  0  0  0  0  0
  -54.5659   -5.4491   14.5135 C   0  0  0  0  0  0
  -49.6991   -1.1414   14.0753 C   0  0  0  0  0  0
  -49.6965   -0.4229   15.2716 C   0  0  0  0  0  0
  -54.0997   -7.8127   15.9204 C   0  0  0  0  0  0
  -55.2854   -6.6018   14.1984 C   0  0  0  0  0  0
  -55.0523   -7.7836   14.9019 C   0  0  0  0  0  0
  -54.3154   -3.4407   18.4074 H   0  0  0  0  0  0
  -49.0964   -1.3040   12.2676 H   0  0  0  0  0  0
  -52.9079   -9.1342   16.6432 H   0  0  0  0  0  0
  -55.4854   -9.6376   15.1560 H   0  0  0  0  0  0
  1  7  1  0  0  0
  1  9  1  0  0  0
  2 11  1  0  0  0
  2 22  1  0  0  0
  3 12  2  0  0  0
  4 17  1  0  0  0
  4 23  1  0  0  0
  5 19  1  0  0  0
  5 24  1  0  0  0
  6 21  1  0  0  0
  6 25  1  0  0  0
  7 10  1  0  0  0
  7 11  2  0  0  0
  8  9  2  0  0  0
  8 12  1  0  0  0
  8 13  1  0  0  0
  9 14  1  0  0  0
 10 15  2  0  0  0
 10 16  1  0  0  0
 11 12  1  0  0  0
 13 18  2  0  0  0
 14 17  2  0  0  0
 15 19  1  0  0  0
 16 20  2  0  0  0
 17 18  1  0  0  0
 19 21  2  0  0  0
 20 21  1  0  0  0
M  END
>  <CHROM.0>
57.07689800,-175.58333830,173.43474146

>  <CHROM.1>
-125.75577238,4.01540715,-49.38434920,-0.36642275,116.17609276,-52.55833146
-4.24712487,15.63130455,-0.33747907,-0.93309508,-2.03686614

>  <Name>
5281614

>  <PUBCHEM_ATOM_DEF_STEREO_COUNT>
0

>  <PUBCHEM_ATOM_UDEF_STEREO_COUNT>
0

>  <PUBCHEM_BOND_DEF_STEREO_COUNT>
0

>  <PUBCHEM_BOND_UDEF_STEREO_COUNT>
0

>  <PUBCHEM_CACTVS_TAUTO_COUNT>
211

>  <PUBCHEM_COMPONENT_COUNT>
1

>  <PUBCHEM_COMPOUND_CID>
5281614

>  <PUBCHEM_CONFORMER_DIVERSEORDER>
1
3
2
4

>  <PUBCHEM_CONFORMER_ID>
0050974E00000001

>  <PUBCHEM_CONFORMER_RMSD>
0.6

>  <PUBCHEM_COORDINATE_TYPE>
2
5
10

>  <PUBCHEM_EFFECTIVE_ROTOR_COUNT>
1

>  <PUBCHEM_FEATURE_SELFOVERLAP>
45.705

>  <PUBCHEM_HEAVY_ATOM_COUNT>
21

>  <PUBCHEM_ISOTOPIC_ATOM_COUNT>
0

>  <PUBCHEM_MMFF94_ENERGY>
63.3231

>  <PUBCHEM_MMFF94_PARTIAL_CHARGES>
31
1 -0.16
10 0.03
11 0.09
12 0.47
13 -0.15
14 -0.15
15 -0.15
16 -0.15
17 0.08
18 -0.15
19 0.08
2 -0.53
20 -0.15
21 0.08
22 0.15
23 0.15
24 0.15
25 0.15
26 0.15
27 0.15
28 0.45
29 0.45
3 -0.57
30 0.45
31 0.45
4 -0.53
5 -0.53
6 -0.53
7 0.05
8 0.09
9 0.08

>  <PUBCHEM_PHARMACOPHORE_FEATURES>
9
1 1 acceptor
1 2 donor
1 3 acceptor
1 4 donor
1 5 donor
1 6 donor
6 1 7 8 9 11 12 rings
6 10 15 16 19 20 21 rings
6 8 9 13 14 17 18 rings

>  <PUBCHEM_SHAPE_FINGERPRINT>
10319926 262 18197191691463025650
11046707 91 18409165524084290187
11370993 144 16916795041429104491
11543360 7 15574712534293567507
11552529 35 14619643787438718685
11796584 16 18053666872396607318
12236239 1 17676205732828356282
12363563 72 18338520845390468915
12553582 1 18335422383079402043
12788726 201 18187641337300532121
13140716 1 18339079393340139273
13288520 33 18410009940308579395
13862211 1 18410289242354007383
14386348 63 17917992754818192534
14790565 3 17763186834971878929
15196674 1 18337951294098693961
15961568 22 18336260267091762604
16752209 62 18261386724325207555
16945 1 18409726227938926049
17138139 8 17532082985083390723
17349148 13 17385719171601143218
17492 89 17907293605117387543
17804303 29 18412823599249003441
1813 80 18412549841927571013
18222031 100 18270677688170113671
19141452 34 17775002427494233167
193927 3 18341338906756936155
19862831 5 17530686498194398818
200 152 16588022381663776488
20028762 73 18057885956073817583
20374829 77 18410572903236631871
20871999 31 18337117786637799036
21033648 29 17131255892312039915
21033650 10 18046089085349049940
21065201 7 18341891827797866298
21267235 1 18335986445693298475
21728266 224 18188759570664201938
2297311 6 18412833473088575574
23175994 123 17346881152422268889
23366157 5 17897725602754440013
23402539 116 18408315575399129671
23557571 272 18272649000812649592
23559900 14 18413386519095611444
3004659 81 18040430018584867655
314173 85 18272092703678835857
335352 9 18409726267052334141
465052 167 18266466588748397503
474 4 17023763350005520324
5104073 3 18341336712149552321
573450 72 18187920621695786632
602551 16 18412824668690624378
67856867 119 18187367683775908276
7364860 26 18126285491440728585
7495541 125 18202279217511116160
77492 1 17531530876096207384
7970288 3 18337387253029349179
9709674 26 18199470952612142918

>  <PUBCHEM_SHAPE_MULTIPOLES>
396.95
10.64
2.28
1.08
3.76
1.07
-0.1
-6.17
-0.53
-2.96
-0.07
1.72
-0.2
0.22

>  <PUBCHEM_SHAPE_SELFOVERLAP>
888.737

>  <PUBCHEM_SHAPE_VOLUME>
209.3

>  <RI>
-3.81521e+08

>  <Rbt.Current_Directory>
/root/miniconda3/envs/rdock/share/rxdock-2013.1.1_148c5bd1-0/data/ligands/prepped_ligands/Fisetin

>  <Rbt.Executable>
rbdock/0.1.0

>  <Rbt.Library>
librxdock.so/0.1.0

>  <Rbt.Parameter_File>
/root/miniconda3/envs/rdock/share/rxdock-2013.1.1_148c5bd1-0/data/scripts/dock.prm

>  <Rbt.Receptor>
def.prm

>  <SCORE>
-21.3711

>  <SCORE.INTER>
-20.876

>  <SCORE.INTER.CONST>
1

>  <SCORE.INTER.POLAR>
-2.03066

>  <SCORE.INTER.REPUL>
0

>  <SCORE.INTER.ROT>
1

>  <SCORE.INTER.VDW>
-20.3718

>  <SCORE.INTER.norm>
-0.994097

>  <SCORE.INTRA>
0.496553

>  <SCORE.INTRA.DIHEDRAL>
3.64391

>  <SCORE.INTRA.DIHEDRAL.0>
6.17317

>  <SCORE.INTRA.POLAR>
-0.0854709

>  <SCORE.INTRA.POLAR.0>
0

>  <SCORE.INTRA.REPUL>
0

>  <SCORE.INTRA.REPUL.0>
0

>  <SCORE.INTRA.VDW>
-1.0348

>  <SCORE.INTRA.VDW.0>
0.491979

>  <SCORE.INTRA.norm>
0.0236454

>  <SCORE.RESTR>
0

>  <SCORE.RESTR.CAVITY>
0

>  <SCORE.RESTR.norm>
0

>  <SCORE.SYSTEM>
-0.991597

>  <SCORE.SYSTEM.CONST>
0

>  <SCORE.SYSTEM.DIHEDRAL>
0.22978

>  <SCORE.SYSTEM.VDW>
-1.10649

>  <SCORE.SYSTEM.norm>
-0.0472189

>  <SCORE.heavy>
21

>  <SCORE.norm>
-1.01767

$$$$
5281614
  RxDock  02242101183D
librxdock.so/0.1.0
 25 27  0  0  0  0  0  0  0  0999 V2000
  -51.6395   -3.5611   15.0746 O   0  0  0  0  0  0
  -48.0990   -4.1942   15.8819 O   0  0  0  0  0  0
  -49.4097   -6.3820   16.9916 O   0  0  0  0  0  0
  -55.6701   -5.9031   15.9695 O   0  0  0  0  0  0
  -46.5723   -0.4358   14.1825 O   0  0  0  0  0  0
  -48.2643    1.1885   12.6923 O   0  0  0  0  0  0
  -50.2603   -3.4560   15.1618 C   0  0  0  0  0  0
  -51.5443   -5.6511   16.3052 C   0  0  0  0  0  0
  -52.2496   -4.6515   15.6387 C   0  0  0  0  0  0
  -49.7345   -2.2398   14.5167 C   0  0  0  0  0  0
  -49.4653   -4.3454   15.7844 C   0  0  0  0  0  0
  -50.0817   -5.5385   16.4133 C   0  0  0  0  0  0
  -52.2199   -6.7399   16.8621 C   0  0  0  0  0  0
  -53.6376   -4.7342   15.5248 C   0  0  0  0  0  0
  -48.3871   -1.9045   14.6526 C   0  0  0  0  0  0
  -50.5839   -1.4233   13.7697 C   0  0  0  0  0  0
  -54.3158   -5.8197   16.0793 C   0  0  0  0  0  0
  -53.6082   -6.8205   16.7464 C   0  0  0  0  0  0
  -47.8892   -0.7536   14.0417 C   0  0  0  0  0  0
  -50.0861   -0.2722   13.1590 C   0  0  0  0  0  0
  -48.7388    0.0626   13.2949 C   0  0  0  0  0  0
  -47.7151   -4.9564   16.3444 H   0  0  0  0  0  0
  -55.9284   -6.8410   15.9613 H   0  0  0  0  0  0
  -46.0955   -0.6459   13.3634 H   0  0  0  0  0  0
  -47.5670    0.9519   12.0598 H   0  0  0  0  0  0
  1  7  1  0  0  0
  1  9  1  0  0  0
  2 11  1  0  0  0
  2 22  1  0  0  0
  3 12  2  0  0  0
  4 17  1  0  0  0
  4 23  1  0  0  0
  5 19  1  0  0  0
  5 24  1  0  0  0
  6 21  1  0  0  0
  6 25  1  0  0  0
  7 10  1  0  0  0
  7 11  2  0  0  0
  8  9  2  0  0  0
  8 12  1  0  0  0
  8 13  1  0  0  0
  9 14  1  0  0  0
 10 15  2  0  0  0
 10 16  1  0  0  0
 11 12  1  0  0  0
 13 18  2  0  0  0
 14 17  2  0  0  0
 15 19  1  0  0  0
 16 20  2  0  0  0
 17 18  1  0  0  0
 19 21  2  0  0  0
 20 21  1  0  0  0
M  END
>  <CHROM.0>
-63.80179942,59.29221165,175.33554597

>  <CHROM.1>
-178.34346650,150.62106159,104.15129201,60.22942802,172.41485984,-50.53844863
-3.47361290,15.16262204,2.25562614,0.12325702,2.60253245

>  <Name>
5281614

>  <PUBCHEM_ATOM_DEF_STEREO_COUNT>
0

>  <PUBCHEM_ATOM_UDEF_STEREO_COUNT>
0

>  <PUBCHEM_BOND_DEF_STEREO_COUNT>
0

>  <PUBCHEM_BOND_UDEF_STEREO_COUNT>
0

>  <PUBCHEM_CACTVS_TAUTO_COUNT>
211

>  <PUBCHEM_COMPONENT_COUNT>
1

>  <PUBCHEM_COMPOUND_CID>
5281614

>  <PUBCHEM_CONFORMER_DIVERSEORDER>
1
3
2
4

>  <PUBCHEM_CONFORMER_ID>
0050974E00000001

>  <PUBCHEM_CONFORMER_RMSD>
0.6

>  <PUBCHEM_COORDINATE_TYPE>
2
5
10

>  <PUBCHEM_EFFECTIVE_ROTOR_COUNT>
1

>  <PUBCHEM_FEATURE_SELFOVERLAP>
45.705

>  <PUBCHEM_HEAVY_ATOM_COUNT>
21

>  <PUBCHEM_ISOTOPIC_ATOM_COUNT>
0

>  <PUBCHEM_MMFF94_ENERGY>
63.3231

>  <PUBCHEM_MMFF94_PARTIAL_CHARGES>
31
1 -0.16
10 0.03
11 0.09
12 0.47
13 -0.15
14 -0.15
15 -0.15
16 -0.15
17 0.08
18 -0.15
19 0.08
2 -0.53
20 -0.15
21 0.08
22 0.15
23 0.15
24 0.15
25 0.15
26 0.15
27 0.15
28 0.45
29 0.45
3 -0.57
30 0.45
31 0.45
4 -0.53
5 -0.53
6 -0.53
7 0.05
8 0.09
9 0.08

>  <PUBCHEM_PHARMACOPHORE_FEATURES>
9
1 1 acceptor
1 2 donor
1 3 acceptor
1 4 donor
1 5 donor
1 6 donor
6 1 7 8 9 11 12 rings
6 10 15 16 19 20 21 rings
6 8 9 13 14 17 18 rings

>  <PUBCHEM_SHAPE_FINGERPRINT>
10319926 262 18197191691463025650
11046707 91 18409165524084290187
11370993 144 16916795041429104491
11543360 7 15574712534293567507
11552529 35 14619643787438718685
11796584 16 18053666872396607318
12236239 1 17676205732828356282
12363563 72 18338520845390468915
12553582 1 18335422383079402043
12788726 201 18187641337300532121
13140716 1 18339079393340139273
13288520 33 18410009940308579395
13862211 1 18410289242354007383
14386348 63 17917992754818192534
14790565 3 17763186834971878929
15196674 1 18337951294098693961
15961568 22 18336260267091762604
16752209 62 18261386724325207555
16945 1 18409726227938926049
17138139 8 17532082985083390723
17349148 13 17385719171601143218
17492 89 17907293605117387543
17804303 29 18412823599249003441
1813 80 18412549841927571013
18222031 100 18270677688170113671
19141452 34 17775002427494233167
193927 3 18341338906756936155
19862831 5 17530686498194398818
200 152 16588022381663776488
20028762 73 18057885956073817583
20374829 77 18410572903236631871
20871999 31 18337117786637799036
21033648 29 17131255892312039915
21033650 10 18046089085349049940
21065201 7 18341891827797866298
21267235 1 18335986445693298475
21728266 224 18188759570664201938
2297311 6 18412833473088575574
23175994 123 17346881152422268889
23366157 5 17897725602754440013
23402539 116 18408315575399129671
23557571 272 18272649000812649592
23559900 14 18413386519095611444
3004659 81 18040430018584867655
314173 85 18272092703678835857
335352 9 18409726267052334141
465052 167 18266466588748397503
474 4 17023763350005520324
5104073 3 18341336712149552321
573450 72 18187920621695786632
602551 16 18412824668690624378
67856867 119 18187367683775908276
7364860 26 18126285491440728585
7495541 125 18202279217511116160
77492 1 17531530876096207384
7970288 3 18337387253029349179
9709674 26 18199470952612142918

>  <PUBCHEM_SHAPE_MULTIPOLES>
396.95
10.64
2.28
1.08
3.76
1.07
-0.1
-6.17
-0.53
-2.96
-0.07
1.72
-0.2
0.22

>  <PUBCHEM_SHAPE_SELFOVERLAP>
888.737

>  <PUBCHEM_SHAPE_VOLUME>
209.3

>  <RI>
-3.81521e+08

>  <Rbt.Current_Directory>
/root/miniconda3/envs/rdock/share/rxdock-2013.1.1_148c5bd1-0/data/ligands/prepped_ligands/Fisetin

>  <Rbt.Executable>
rbdock/0.1.0

>  <Rbt.Library>
librxdock.so/0.1.0

>  <Rbt.Parameter_File>
/root/miniconda3/envs/rdock/share/rxdock-2013.1.1_148c5bd1-0/data/scripts/dock.prm

>  <Rbt.Receptor>
def.prm

>  <SCORE>
-19.2659

>  <SCORE.INTER>
-20.503

>  <SCORE.INTER.CONST>
1

>  <SCORE.INTER.POLAR>
-2.56643

>  <SCORE.INTER.REPUL>
0.0721526

>  <SCORE.INTER.ROT>
1

>  <SCORE.INTER.VDW>
-18.5379

>  <SCORE.INTER.norm>
-0.976333

>  <SCORE.INTRA>
2.17743

>  <SCORE.INTRA.DIHEDRAL>
3.19561

>  <SCORE.INTRA.DIHEDRAL.0>
6.17317

>  <SCORE.INTRA.POLAR>
0

>  <SCORE.INTRA.POLAR.0>
0

>  <SCORE.INTRA.REPUL>
0

>  <SCORE.INTRA.REPUL.0>
0

>  <SCORE.INTRA.VDW>
0.579627

>  <SCORE.INTRA.VDW.0>
0.491979

>  <SCORE.INTRA.norm>
0.103687

>  <SCORE.RESTR>
0

>  <SCORE.RESTR.CAVITY>
0

>  <SCORE.RESTR.norm>
0

>  <SCORE.SYSTEM>
-0.940349

>  <SCORE.SYSTEM.CONST>
0

>  <SCORE.SYSTEM.DIHEDRAL>
0.0981887

>  <SCORE.SYSTEM.VDW>
-0.989443

>  <SCORE.SYSTEM.norm>
-0.0447785

>  <SCORE.heavy>
21

>  <SCORE.norm>
-0.917425

$$$$
5281614
  RxDock  02242101183D
librxdock.so/0.1.0
 25 27  0  0  0  0  0  0  0  0999 V2000
  -48.0397   -2.1018   16.3937 O   0  0  0  0  0  0
  -46.1179    0.2287   14.2811 O   0  0  0  0  0  0
  -48.5840    0.0907   13.0024 O   0  0  0  0  0  0
  -52.4452   -3.8540   16.1641 O   0  0  0  0  0  0
  -43.5261    0.9693   18.3918 O   0  0  0  0  0  0
  -42.3251   -1.4716   18.9589 O   0  0  0  0  0  0
  -47.0370   -1.2884   15.8899 C   0  0  0  0  0  0
  -49.4896   -1.4205   14.5702 C   0  0  0  0  0  0
  -49.2396   -2.1472   15.7323 C   0  0  0  0  0  0
  -45.8025   -1.3329   16.6936 C   0  0  0  0  0  0
  -47.1466   -0.5447   14.7739 C   0  0  0  0  0  0
  -48.4249   -0.5659   14.0228 C   0  0  0  0  0  0
  -50.7323   -1.5068   13.9377 C   0  0  0  0  0  0
  -50.2324   -2.9667   16.2700 C   0  0  0  0  0  0
  -45.2375   -0.1501   17.1711 C   0  0  0  0  0  0
  -45.1984   -2.5579   16.9773 C   0  0  0  0  0  0
  -51.4745   -3.0554   15.6415 C   0  0  0  0  0  0
  -51.7238   -2.3267   14.4777 C   0  0  0  0  0  0
  -44.0693   -0.1921   17.9322 C   0  0  0  0  0  0
  -44.0299   -2.6000   17.7381 C   0  0  0  0  0  0
  -43.4655   -1.4172   18.2156 C   0  0  0  0  0  0
  -45.8756   -0.0731   13.3910 H   0  0  0  0  0  0
  -52.1094   -4.2662   16.9788 H   0  0  0  0  0  0
  -42.7646    0.7719   18.9606 H   0  0  0  0  0  0
  -41.8240   -2.2712   18.7311 H   0  0  0  0  0  0
  1  7  1  0  0  0
  1  9  1  0  0  0
  2 11  1  0  0  0
  2 22  1  0  0  0
  3 12  2  0  0  0
  4 17  1  0  0  0
  4 23  1  0  0  0
  5 19  1  0  0  0
  5 24  1  0  0  0
  6 21  1  0  0  0
  6 25  1  0  0  0
  7 10  1  0  0  0
  7 11  2  0  0  0
  8  9  2  0  0  0
  8 12  1  0  0  0
  8 13  1  0  0  0
  9 14  1  0  0  0
 10 15  2  0  0  0
 10 16  1  0  0  0
 11 12  1  0  0  0
 13 18  2  0  0  0
 14 17  2  0  0  0
 15 19  1  0  0  0
 16 20  2  0  0  0
 17 18  1  0  0  0
 19 21  2  0  0  0
 20 21  1  0  0  0
M  END
>  <CHROM.0>
-179.42708218,-177.91002687,62.21133658

>  <CHROM.1>
119.07588519,1.32516324,175.39963027,-153.86375649,-126.21554114,-47.29370515
-1.41641586,16.08479604,2.97438290,-0.40596688,-0.86539825

>  <Name>
5281614

>  <PUBCHEM_ATOM_DEF_STEREO_COUNT>
0

>  <PUBCHEM_ATOM_UDEF_STEREO_COUNT>
0

>  <PUBCHEM_BOND_DEF_STEREO_COUNT>
0

>  <PUBCHEM_BOND_UDEF_STEREO_COUNT>
0

>  <PUBCHEM_CACTVS_TAUTO_COUNT>
211

>  <PUBCHEM_COMPONENT_COUNT>
1

>  <PUBCHEM_COMPOUND_CID>
5281614

>  <PUBCHEM_CONFORMER_DIVERSEORDER>
1
3
2
4

>  <PUBCHEM_CONFORMER_ID>
0050974E00000001

>  <PUBCHEM_CONFORMER_RMSD>
0.6

>  <PUBCHEM_COORDINATE_TYPE>
2
5
10

>  <PUBCHEM_EFFECTIVE_ROTOR_COUNT>
1

>  <PUBCHEM_FEATURE_SELFOVERLAP>
45.705

>  <PUBCHEM_HEAVY_ATOM_COUNT>
21

>  <PUBCHEM_ISOTOPIC_ATOM_COUNT>
0

>  <PUBCHEM_MMFF94_ENERGY>
63.3231

>  <PUBCHEM_MMFF94_PARTIAL_CHARGES>
31
1 -0.16
10 0.03
11 0.09
12 0.47
13 -0.15
14 -0.15
15 -0.15
16 -0.15
17 0.08
18 -0.15
19 0.08
2 -0.53
20 -0.15
21 0.08
22 0.15
23 0.15
24 0.15
25 0.15
26 0.15
27 0.15
28 0.45
29 0.45
3 -0.57
30 0.45
31 0.45
4 -0.53
5 -0.53
6 -0.53
7 0.05
8 0.09
9 0.08

>  <PUBCHEM_PHARMACOPHORE_FEATURES>
9
1 1 acceptor
1 2 donor
1 3 acceptor
1 4 donor
1 5 donor
1 6 donor
6 1 7 8 9 11 12 rings
6 10 15 16 19 20 21 rings
6 8 9 13 14 17 18 rings

>  <PUBCHEM_SHAPE_FINGERPRINT>
10319926 262 18197191691463025650
11046707 91 18409165524084290187
11370993 144 16916795041429104491
11543360 7 15574712534293567507
11552529 35 14619643787438718685
11796584 16 18053666872396607318
12236239 1 17676205732828356282
12363563 72 18338520845390468915
12553582 1 18335422383079402043
12788726 201 18187641337300532121
13140716 1 18339079393340139273
13288520 33 18410009940308579395
13862211 1 18410289242354007383
14386348 63 17917992754818192534
14790565 3 17763186834971878929
15196674 1 18337951294098693961
15961568 22 18336260267091762604
16752209 62 18261386724325207555
16945 1 18409726227938926049
17138139 8 17532082985083390723
17349148 13 17385719171601143218
17492 89 17907293605117387543
17804303 29 18412823599249003441
1813 80 18412549841927571013
18222031 100 18270677688170113671
19141452 34 17775002427494233167
193927 3 18341338906756936155
19862831 5 17530686498194398818
200 152 16588022381663776488
20028762 73 18057885956073817583
20374829 77 18410572903236631871
20871999 31 18337117786637799036
21033648 29 17131255892312039915
21033650 10 18046089085349049940
21065201 7 18341891827797866298
21267235 1 18335986445693298475
21728266 224 18188759570664201938
2297311 6 18412833473088575574
23175994 123 17346881152422268889
23366157 5 17897725602754440013
23402539 116 18408315575399129671
23557571 272 18272649000812649592
23559900 14 18413386519095611444
3004659 81 18040430018584867655
314173 85 18272092703678835857
335352 9 18409726267052334141
465052 167 18266466588748397503
474 4 17023763350005520324
5104073 3 18341336712149552321
573450 72 18187920621695786632
602551 16 18412824668690624378
67856867 119 18187367683775908276
7364860 26 18126285491440728585
7495541 125 18202279217511116160
77492 1 17531530876096207384
7970288 3 18337387253029349179
9709674 26 18199470952612142918

>  <PUBCHEM_SHAPE_MULTIPOLES>
396.95
10.64
2.28
1.08
3.76
1.07
-0.1
-6.17
-0.53
-2.96
-0.07
1.72
-0.2
0.22

>  <PUBCHEM_SHAPE_SELFOVERLAP>
888.737

>  <PUBCHEM_SHAPE_VOLUME>
209.3

>  <RI>
-3.81521e+08

>  <Rbt.Current_Directory>
/root/miniconda3/envs/rdock/share/rxdock-2013.1.1_148c5bd1-0/data/ligands/prepped_ligands/Fisetin

>  <Rbt.Executable>
rbdock/0.1.0

>  <Rbt.Library>
librxdock.so/0.1.0

>  <Rbt.Parameter_File>
/root/miniconda3/envs/rdock/share/rxdock-2013.1.1_148c5bd1-0/data/scripts/dock.prm

>  <Rbt.Receptor>
def.prm

>  <SCORE>
-18.6691

>  <SCORE.INTER>
-17.4803

>  <SCORE.INTER.CONST>
1

>  <SCORE.INTER.POLAR>
-1.97666

>  <SCORE.INTER.REPUL>
0

>  <SCORE.INTER.ROT>
1

>  <SCORE.INTER.VDW>
-17.1596

>  <SCORE.INTER.norm>
-0.832394

>  <SCORE.INTRA>
-0.275569

>  <SCORE.INTRA.DIHEDRAL>
1.59815

>  <SCORE.INTRA.DIHEDRAL.0>
6.17317

>  <SCORE.INTRA.POLAR>
-0.115913

>  <SCORE.INTRA.POLAR.0>
0

>  <SCORE.INTRA.REPUL>
0

>  <SCORE.INTRA.REPUL.0>
0

>  <SCORE.INTRA.VDW>
-0.680538

>  <SCORE.INTRA.VDW.0>
0.491979

>  <SCORE.INTRA.norm>
-0.0131223

>  <SCORE.RESTR>
0.118862

>  <SCORE.RESTR.CAVITY>
0.118862

>  <SCORE.RESTR.norm>
0.0056601

>  <SCORE.SYSTEM>
-1.03214

>  <SCORE.SYSTEM.CONST>
0

>  <SCORE.SYSTEM.DIHEDRAL>
0.0323729

>  <SCORE.SYSTEM.POLAR>
-0.00599436

>  <SCORE.SYSTEM.VDW>
-1.02794

>  <SCORE.SYSTEM.norm>
-0.0491494

>  <SCORE.heavy>
21

>  <SCORE.norm>
-0.889006

$$$$
5281614
  RxDock  02242101183D
librxdock.so/0.1.0
 25 27  0  0  0  0  0  0  0  0999 V2000
  -52.1115   -3.7776   14.8439 O   0  0  0  0  0  0
  -53.4937   -4.3299   18.2162 O   0  0  0  0  0  0
  -51.9606   -2.0295   18.5216 O   0  0  0  0  0  0
  -49.2196   -0.5029   12.9878 O   0  0  0  0  0  0
  -53.8349   -8.9977   16.6417 O   0  0  0  0  0  0
  -55.7273   -8.9269   14.6082 O   0  0  0  0  0  0
  -52.8169   -4.2940   15.9194 C   0  0  0  0  0  0
  -51.2718   -1.9991   16.2663 C   0  0  0  0  0  0
  -51.3629   -2.6452   15.0354 C   0  0  0  0  0  0
  -53.5771   -5.5094   15.5780 C   0  0  0  0  0  0
  -52.8067   -3.7723   17.1597 C   0  0  0  0  0  0
  -52.0070   -2.5499   17.4150 C   0  0  0  0  0  0
  -50.4919   -0.8480   16.4029 C   0  0  0  0  0  0
  -50.6732   -2.1437   13.9313 C   0  0  0  0  0  0
  -53.3481   -6.6951   16.2764 C   0  0  0  0  0  0
  -54.5263   -5.4748   14.5562 C   0  0  0  0  0  0
  -49.8936   -0.9946   14.0635 C   0  0  0  0  0  0
  -49.8033   -0.3481   15.2970 C   0  0  0  0  0  0
  -54.0680   -7.8455   15.9537 C   0  0  0  0  0  0
  -55.2460   -6.6252   14.2331 C   0  0  0  0  0  0
  -55.0169   -7.8105   14.9319 C   0  0  0  0  0  0
  -53.3584   -5.2911   18.2270 H   0  0  0  0  0  0
  -49.2554   -1.1563   12.2680 H   0  0  0  0  0  0
  -53.0296   -8.9029   17.1755 H   0  0  0  0  0  0
  -55.4353   -9.6715   15.1584 H   0  0  0  0  0  0
  1  7  1  0  0  0
  1  9  1  0  0  0
  2 11  1  0  0  0
  2 22  1  0  0  0
  3 12  2  0  0  0
  4 17  1  0  0  0
  4 23  1  0  0  0
  5 19  1  0  0  0
  5 24  1  0  0  0
  6 21  1  0  0  0
  6 25  1  0  0  0
  7 10  1  0  0  0
  7 11  2  0  0  0
  8  9  2  0  0  0
  8 12  1  0  0  0
  8 13  1  0  0  0
  9 14  1  0  0  0
 10 15  2  0  0  0
 10 16  1  0  0  0
 11 12  1  0  0  0
 13 18  2  0  0  0
 14 17  2  0  0  0
 15 19  1  0  0  0
 16 20  2  0  0  0
 17 18  1  0  0  0
 19 21  2  0  0  0
 20 21  1  0  0  0
M  END
>  <CHROM.0>
-67.02271804,-61.54512125,176.30121785

>  <CHROM.1>
44.91451656,-10.58056315,-11.87454156,-1.97801269,122.33947978,-52.55115013
-4.26168141,15.67421326,-0.16846428,-0.98809194,-1.83152804

>  <Name>
5281614

>  <PUBCHEM_ATOM_DEF_STEREO_COUNT>
0

>  <PUBCHEM_ATOM_UDEF_STEREO_COUNT>
0

>  <PUBCHEM_BOND_DEF_STEREO_COUNT>
0

>  <PUBCHEM_BOND_UDEF_STEREO_COUNT>
0

>  <PUBCHEM_CACTVS_TAUTO_COUNT>
211

>  <PUBCHEM_COMPONENT_COUNT>
1

>  <PUBCHEM_COMPOUND_CID>
5281614

>  <PUBCHEM_CONFORMER_DIVERSEORDER>
1
3
2
4

>  <PUBCHEM_CONFORMER_ID>
0050974E00000001

>  <PUBCHEM_CONFORMER_RMSD>
0.6

>  <PUBCHEM_COORDINATE_TYPE>
2
5
10

>  <PUBCHEM_EFFECTIVE_ROTOR_COUNT>
1

>  <PUBCHEM_FEATURE_SELFOVERLAP>
45.705

>  <PUBCHEM_HEAVY_ATOM_COUNT>
21

>  <PUBCHEM_ISOTOPIC_ATOM_COUNT>
0

>  <PUBCHEM_MMFF94_ENERGY>
63.3231

>  <PUBCHEM_MMFF94_PARTIAL_CHARGES>
31
1 -0.16
10 0.03
11 0.09
12 0.47
13 -0.15
14 -0.15
15 -0.15
16 -0.15
17 0.08
18 -0.15
19 0.08
2 -0.53
20 -0.15
21 0.08
22 0.15
23 0.15
24 0.15
25 0.15
26 0.15
27 0.15
28 0.45
29 0.45
3 -0.57
30 0.45
31 0.45
4 -0.53
5 -0.53
6 -0.53
7 0.05
8 0.09
9 0.08

>  <PUBCHEM_PHARMACOPHORE_FEATURES>
9
1 1 acceptor
1 2 donor
1 3 acceptor
1 4 donor
1 5 donor
1 6 donor
6 1 7 8 9 11 12 rings
6 10 15 16 19 20 21 rings
6 8 9 13 14 17 18 rings

>  <PUBCHEM_SHAPE_FINGERPRINT>
10319926 262 18197191691463025650
11046707 91 18409165524084290187
11370993 144 16916795041429104491
11543360 7 15574712534293567507
11552529 35 14619643787438718685
11796584 16 18053666872396607318
12236239 1 17676205732828356282
12363563 72 18338520845390468915
12553582 1 18335422383079402043
12788726 201 18187641337300532121
13140716 1 18339079393340139273
13288520 33 18410009940308579395
13862211 1 18410289242354007383
14386348 63 17917992754818192534
14790565 3 17763186834971878929
15196674 1 18337951294098693961
15961568 22 18336260267091762604
16752209 62 18261386724325207555
16945 1 18409726227938926049
17138139 8 17532082985083390723
17349148 13 17385719171601143218
17492 89 17907293605117387543
17804303 29 18412823599249003441
1813 80 18412549841927571013
18222031 100 18270677688170113671
19141452 34 17775002427494233167
193927 3 18341338906756936155
19862831 5 17530686498194398818
200 152 16588022381663776488
20028762 73 18057885956073817583
20374829 77 18410572903236631871
20871999 31 18337117786637799036
21033648 29 17131255892312039915
21033650 10 18046089085349049940
21065201 7 18341891827797866298
21267235 1 18335986445693298475
21728266 224 18188759570664201938
2297311 6 18412833473088575574
23175994 123 17346881152422268889
23366157 5 17897725602754440013
23402539 116 18408315575399129671
23557571 272 18272649000812649592
23559900 14 18413386519095611444
3004659 81 18040430018584867655
314173 85 18272092703678835857
335352 9 18409726267052334141
465052 167 18266466588748397503
474 4 17023763350005520324
5104073 3 18341336712149552321
573450 72 18187920621695786632
602551 16 18412824668690624378
67856867 119 18187367683775908276
7364860 26 18126285491440728585
7495541 125 18202279217511116160
77492 1 17531530876096207384
7970288 3 18337387253029349179
9709674 26 18199470952612142918

>  <PUBCHEM_SHAPE_MULTIPOLES>
396.95
10.64
2.28
1.08
3.76
1.07
-0.1
-6.17
-0.53
-2.96
-0.07
1.72
-0.2
0.22

>  <PUBCHEM_SHAPE_SELFOVERLAP>
888.737

>  <PUBCHEM_SHAPE_VOLUME>
209.3

>  <RI>
-3.81521e+08

>  <Rbt.Current_Directory>
/root/miniconda3/envs/rdock/share/rxdock-2013.1.1_148c5bd1-0/data/ligands/prepped_ligands/Fisetin

>  <Rbt.Executable>
rbdock/0.1.0

>  <Rbt.Library>
librxdock.so/0.1.0

>  <Rbt.Parameter_File>
/root/miniconda3/envs/rdock/share/rxdock-2013.1.1_148c5bd1-0/data/scripts/dock.prm

>  <Rbt.Receptor>
def.prm

>  <SCORE>
-19.669

>  <SCORE.INTER>
-18.0965

>  <SCORE.INTER.CONST>
1

>  <SCORE.INTER.POLAR>
-1.14512

>  <SCORE.INTER.REPUL>
0

>  <SCORE.INTER.ROT>
1

>  <SCORE.INTER.VDW>
-20.6031

>  <SCORE.INTER.norm>
-0.861736

>  <SCORE.INTRA>
-0.569635

>  <SCORE.INTRA.DIHEDRAL>
0.0121833

>  <SCORE.INTRA.DIHEDRAL.0>
6.17317

>  <SCORE.INTRA.POLAR>
-0.128188

>  <SCORE.INTRA.POLAR.0>
0

>  <SCORE.INTRA.REPUL>
0

>  <SCORE.INTRA.REPUL.0>
0

>  <SCORE.INTRA.VDW>
-0.139889

>  <SCORE.INTRA.VDW.0>
0.491979

>  <SCORE.INTRA.norm>
-0.0271255

>  <SCORE.RESTR>
0

>  <SCORE.RESTR.CAVITY>
0

>  <SCORE.RESTR.norm>
0

>  <SCORE.SYSTEM>
-1.00285

>  <SCORE.SYSTEM.CONST>
0

>  <SCORE.SYSTEM.DIHEDRAL>
0.174015

>  <SCORE.SYSTEM.VDW>
-1.08986

>  <SCORE.SYSTEM.norm>
-0.047755

>  <SCORE.heavy>
21

>  <SCORE.norm>
-0.936617

$$$$
5281614
  RxDock  02242101183D
librxdock.so/0.1.0
 25 27  0  0  0  0  0  0  0  0999 V2000
  -46.6513   -2.3907   17.5630 O   0  0  0  0  0  0
  -45.5733   -3.2170   14.1362 O   0  0  0  0  0  0
  -43.4031   -1.8181   15.1702 O   0  0  0  0  0  0
  -44.6255   -0.0385   21.1539 O   0  0  0  0  0  0
  -49.8736   -6.4136   17.0530 O   0  0  0  0  0  0
  -51.3063   -5.6182   14.8088 O   0  0  0  0  0  0
  -46.6073   -2.8917   16.2716 C   0  0  0  0  0  0
  -44.4230   -1.4745   17.2687 C   0  0  0  0  0  0
  -45.5640   -1.7020   18.0350 C   0  0  0  0  0  0
  -47.8375   -3.6083   15.8908 C   0  0  0  0  0  0
  -45.5718   -2.7340   15.4269 C   0  0  0  0  0  0
  -44.3755   -1.9917   15.8925 C   0  0  0  0  0  0
  -43.3446   -0.7643   17.8023 C   0  0  0  0  0  0
  -45.6343   -1.2195   19.3422 C   0  0  0  0  0  0
  -48.2838   -4.6850   16.6575 C   0  0  0  0  0  0
  -48.5563   -3.2103   14.7633 C   0  0  0  0  0  0
  -44.5597   -0.5102   19.8787 C   0  0  0  0  0  0
  -43.4172   -0.2832   19.1102 C   0  0  0  0  0  0
  -49.4484   -5.3631   16.2975 C   0  0  0  0  0  0
  -49.7207   -3.8886   14.4030 C   0  0  0  0  0  0
  -50.1668   -4.9649   15.1701 C   0  0  0  0  0  0
  -45.9670   -2.5608   13.5391 H   0  0  0  0  0  0
  -43.7925    0.4178   21.3645 H   0  0  0  0  0  0
  -50.0996   -7.1611   16.4764 H   0  0  0  0  0  0
  -51.2816   -6.5289   15.1441 H   0  0  0  0  0  0
  1  7  1  0  0  0
  1  9  1  0  0  0
  2 11  1  0  0  0
  2 22  1  0  0  0
  3 12  2  0  0  0
  4 17  1  0  0  0
  4 23  1  0  0  0
  5 19  1  0  0  0
  5 24  1  0  0  0
  6 21  1  0  0  0
  6 25  1  0  0  0
  7 10  1  0  0  0
  7 11  2  0  0  0
  8  9  2  0  0  0
  8 12  1  0  0  0
  8 13  1  0  0  0
  9 14  1  0  0  0
 10 15  2  0  0  0
 10 16  1  0  0  0
 11 12  1  0  0  0
 13 18  2  0  0  0
 14 17  2  0  0  0
 15 19  1  0  0  0
 16 20  2  0  0  0
 17 18  1  0  0  0
 19 21  2  0  0  0
 20 21  1  0  0  0
M  END
>  <CHROM.0>
77.00522703,-176.92625178,58.34613755

>  <CHROM.1>
87.65124139,179.32351869,-132.72920678,-25.57847305,-56.63494354,-46.65441376
-2.84367575,16.75981190,0.57392563,0.53890125,1.31899193

>  <Name>
5281614

>  <PUBCHEM_ATOM_DEF_STEREO_COUNT>
0

>  <PUBCHEM_ATOM_UDEF_STEREO_COUNT>
0

>  <PUBCHEM_BOND_DEF_STEREO_COUNT>
0

>  <PUBCHEM_BOND_UDEF_STEREO_COUNT>
0

>  <PUBCHEM_CACTVS_TAUTO_COUNT>
211

>  <PUBCHEM_COMPONENT_COUNT>
1

>  <PUBCHEM_COMPOUND_CID>
5281614

>  <PUBCHEM_CONFORMER_DIVERSEORDER>
1
3
2
4

>  <PUBCHEM_CONFORMER_ID>
0050974E00000001

>  <PUBCHEM_CONFORMER_RMSD>
0.6

>  <PUBCHEM_COORDINATE_TYPE>
2
5
10

>  <PUBCHEM_EFFECTIVE_ROTOR_COUNT>
1

>  <PUBCHEM_FEATURE_SELFOVERLAP>
45.705

>  <PUBCHEM_HEAVY_ATOM_COUNT>
21

>  <PUBCHEM_ISOTOPIC_ATOM_COUNT>
0

>  <PUBCHEM_MMFF94_ENERGY>
63.3231

>  <PUBCHEM_MMFF94_PARTIAL_CHARGES>
31
1 -0.16
10 0.03
11 0.09
12 0.47
13 -0.15
14 -0.15
15 -0.15
16 -0.15
17 0.08
18 -0.15
19 0.08
2 -0.53
20 -0.15
21 0.08
22 0.15
23 0.15
24 0.15
25 0.15
26 0.15
27 0.15
28 0.45
29 0.45
3 -0.57
30 0.45
31 0.45
4 -0.53
5 -0.53
6 -0.53
7 0.05
8 0.09
9 0.08

>  <PUBCHEM_PHARMACOPHORE_FEATURES>
9
1 1 acceptor
1 2 donor
1 3 acceptor
1 4 donor
1 5 donor
1 6 donor
6 1 7 8 9 11 12 rings
6 10 15 16 19 20 21 rings
6 8 9 13 14 17 18 rings

>  <PUBCHEM_SHAPE_FINGERPRINT>
10319926 262 18197191691463025650
11046707 91 18409165524084290187
11370993 144 16916795041429104491
11543360 7 15574712534293567507
11552529 35 14619643787438718685
11796584 16 18053666872396607318
12236239 1 17676205732828356282
12363563 72 18338520845390468915
12553582 1 18335422383079402043
12788726 201 18187641337300532121
13140716 1 18339079393340139273
13288520 33 18410009940308579395
13862211 1 18410289242354007383
14386348 63 17917992754818192534
14790565 3 17763186834971878929
15196674 1 18337951294098693961
15961568 22 18336260267091762604
16752209 62 18261386724325207555
16945 1 18409726227938926049
17138139 8 17532082985083390723
17349148 13 17385719171601143218
17492 89 17907293605117387543
17804303 29 18412823599249003441
1813 80 18412549841927571013
18222031 100 18270677688170113671
19141452 34 17775002427494233167
193927 3 18341338906756936155
19862831 5 17530686498194398818
200 152 16588022381663776488
20028762 73 18057885956073817583
20374829 77 18410572903236631871
20871999 31 18337117786637799036
21033648 29 17131255892312039915
21033650 10 18046089085349049940
21065201 7 18341891827797866298
21267235 1 18335986445693298475
21728266 224 18188759570664201938
2297311 6 18412833473088575574
23175994 123 17346881152422268889
23366157 5 17897725602754440013
23402539 116 18408315575399129671
23557571 272 18272649000812649592
23559900 14 18413386519095611444
3004659 81 18040430018584867655
314173 85 18272092703678835857
335352 9 18409726267052334141
465052 167 18266466588748397503
474 4 17023763350005520324
5104073 3 18341336712149552321
573450 72 18187920621695786632
602551 16 18412824668690624378
67856867 119 18187367683775908276
7364860 26 18126285491440728585
7495541 125 18202279217511116160
77492 1 17531530876096207384
7970288 3 18337387253029349179
9709674 26 18199470952612142918

>  <PUBCHEM_SHAPE_MULTIPOLES>
396.95
10.64
2.28
1.08
3.76
1.07
-0.1
-6.17
-0.53
-2.96
-0.07
1.72
-0.2
0.22

>  <PUBCHEM_SHAPE_SELFOVERLAP>
888.737

>  <PUBCHEM_SHAPE_VOLUME>
209.3

>  <RI>
-3.81521e+08

>  <Rbt.Current_Directory>
/root/miniconda3/envs/rdock/share/rxdock-2013.1.1_148c5bd1-0/data/ligands/prepped_ligands/Fisetin

>  <Rbt.Executable>
rbdock/0.1.0

>  <Rbt.Library>
librxdock.so/0.1.0

>  <Rbt.Parameter_File>
/root/miniconda3/envs/rdock/share/rxdock-2013.1.1_148c5bd1-0/data/scripts/dock.prm

>  <Rbt.Receptor>
def.prm

>  <SCORE>
-15.1727

>  <SCORE.INTER>
-16.4944

>  <SCORE.INTER.CONST>
1

>  <SCORE.INTER.POLAR>
-2.09392

>  <SCORE.INTER.REPUL>
0.0578256

>  <SCORE.INTER.ROT>
1

>  <SCORE.INTER.VDW>
-16.0641

>  <SCORE.INTER.norm>
-0.785446

>  <SCORE.INTRA>
1.90672

>  <SCORE.INTRA.DIHEDRAL>
5.40765

>  <SCORE.INTRA.DIHEDRAL.0>
6.17317

>  <SCORE.INTRA.POLAR>
0

>  <SCORE.INTRA.POLAR.0>
0

>  <SCORE.INTRA.REPUL>
0

>  <SCORE.INTRA.REPUL.0>
0

>  <SCORE.INTRA.VDW>
-0.797104

>  <SCORE.INTRA.VDW.0>
0.491979

>  <SCORE.INTRA.norm>
0.0907963

>  <SCORE.RESTR>
0

>  <SCORE.RESTR.CAVITY>
0

>  <SCORE.RESTR.norm>
0

>  <SCORE.SYSTEM>
-0.585037

>  <SCORE.SYSTEM.CONST>
0

>  <SCORE.SYSTEM.DIHEDRAL>
0.711416

>  <SCORE.SYSTEM.VDW>
-0.940745

>  <SCORE.SYSTEM.norm>
-0.0278589

>  <SCORE.heavy>
21

>  <SCORE.norm>
-0.722508

$$$$
5281614
  RxDock  02242101183D
librxdock.so/0.1.0
 25 27  0  0  0  0  0  0  0  0999 V2000
  -50.1946   -4.6629   15.9073 O   0  0  0  0  0  0
  -52.8509   -2.7286   14.2368 O   0  0  0  0  0  0
  -54.2320   -4.8503   15.3886 O   0  0  0  0  0  0
  -50.1724   -8.6637   18.4616 O   0  0  0  0  0  0
  -50.1975    0.8172   13.4911 O   0  0  0  0  0  0
  -47.4862    0.3091   13.1564 O   0  0  0  0  0  0
  -50.8779   -3.6905   15.1943 C   0  0  0  0  0  0
  -52.2909   -5.8161   16.3166 C   0  0  0  0  0  0
  -50.9099   -5.6960   16.4555 C   0  0  0  0  0  0
  -49.9923   -2.6409   14.6597 C   0  0  0  0  0  0
  -52.2062   -3.6942   14.9792 C   0  0  0  0  0  0
  -53.0201   -4.7947   15.5494 C   0  0  0  0  0  0
  -52.9675   -6.8920   16.8967 C   0  0  0  0  0  0
  -50.1952   -6.6530   17.1765 C   0  0  0  0  0  0
  -50.5144   -1.3918   14.3230 C   0  0  0  0  0  0
  -48.6312   -2.8959   14.4901 C   0  0  0  0  0  0
  -50.8671   -7.7286   17.7574 C   0  0  0  0  0  0
  -52.2505   -7.8476   17.6178 C   0  0  0  0  0  0
  -49.6761   -0.3981   13.8175 C   0  0  0  0  0  0
  -47.7930   -1.9024   13.9842 C   0  0  0  0  0  0
  -48.3154   -0.6535   13.6480 C   0  0  0  0  0  0
  -53.5988   -3.1235   13.7606 H   0  0  0  0  0  0
  -49.2421   -8.3858   18.5220 H   0  0  0  0  0  0
  -49.5056    1.3767   13.1031 H   0  0  0  0  0  0
  -46.7035   -0.1053   12.7587 H   0  0  0  0  0  0
  1  7  1  0  0  0
  1  9  1  0  0  0
  2 11  1  0  0  0
  2 22  1  0  0  0
  3 12  2  0  0  0
  4 17  1  0  0  0
  4 23  1  0  0  0
  5 19  1  0  0  0
  5 24  1  0  0  0
  6 21  1  0  0  0
  6 25  1  0  0  0
  7 10  1  0  0  0
  7 11  2  0  0  0
  8  9  2  0  0  0
  8 12  1  0  0  0
  8 13  1  0  0  0
  9 14  1  0  0  0
 10 15  2  0  0  0
 10 16  1  0  0  0
 11 12  1  0  0  0
 13 18  2  0  0  0
 14 17  2  0  0  0
 15 19  1  0  0  0
 16 20  2  0  0  0
 17 18  1  0  0  0
 19 21  2  0  0  0
 20 21  1  0  0  0
M  END
>  <CHROM.0>
-179.72382799,64.57270345,-59.38092909

>  <CHROM.1>
146.18703408,4.82975802,-176.39523094,-156.43096738,-158.48617254,-50.73280066
-3.86949538,15.37519392,-1.90831640,-0.08407834,-0.52464709

>  <Name>
5281614

>  <PUBCHEM_ATOM_DEF_STEREO_COUNT>
0

>  <PUBCHEM_ATOM_UDEF_STEREO_COUNT>
0

>  <PUBCHEM_BOND_DEF_STEREO_COUNT>
0

>  <PUBCHEM_BOND_UDEF_STEREO_COUNT>
0

>  <PUBCHEM_CACTVS_TAUTO_COUNT>
211

>  <PUBCHEM_COMPONENT_COUNT>
1

>  <PUBCHEM_COMPOUND_CID>
5281614

>  <PUBCHEM_CONFORMER_DIVERSEORDER>
1
3
2
4

>  <PUBCHEM_CONFORMER_ID>
0050974E00000001

>  <PUBCHEM_CONFORMER_RMSD>
0.6

>  <PUBCHEM_COORDINATE_TYPE>
2
5
10

>  <PUBCHEM_EFFECTIVE_ROTOR_COUNT>
1

>  <PUBCHEM_FEATURE_SELFOVERLAP>
45.705

>  <PUBCHEM_HEAVY_ATOM_COUNT>
21

>  <PUBCHEM_ISOTOPIC_ATOM_COUNT>
0

>  <PUBCHEM_MMFF94_ENERGY>
63.3231

>  <PUBCHEM_MMFF94_PARTIAL_CHARGES>
31
1 -0.16
10 0.03
11 0.09
12 0.47
13 -0.15
14 -0.15
15 -0.15
16 -0.15
17 0.08
18 -0.15
19 0.08
2 -0.53
20 -0.15
21 0.08
22 0.15
23 0.15
24 0.15
25 0.15
26 0.15
27 0.15
28 0.45
29 0.45
3 -0.57
30 0.45
31 0.45
4 -0.53
5 -0.53
6 -0.53
7 0.05
8 0.09
9 0.08

>  <PUBCHEM_PHARMACOPHORE_FEATURES>
9
1 1 acceptor
1 2 donor
1 3 acceptor
1 4 donor
1 5 donor
1 6 donor
6 1 7 8 9 11 12 rings
6 10 15 16 19 20 21 rings
6 8 9 13 14 17 18 rings

>  <PUBCHEM_SHAPE_FINGERPRINT>
10319926 262 18197191691463025650
11046707 91 18409165524084290187
11370993 144 16916795041429104491
11543360 7 15574712534293567507
11552529 35 14619643787438718685
11796584 16 18053666872396607318
12236239 1 17676205732828356282
12363563 72 18338520845390468915
12553582 1 18335422383079402043
12788726 201 18187641337300532121
13140716 1 18339079393340139273
13288520 33 18410009940308579395
13862211 1 18410289242354007383
14386348 63 17917992754818192534
14790565 3 17763186834971878929
15196674 1 18337951294098693961
15961568 22 18336260267091762604
16752209 62 18261386724325207555
16945 1 18409726227938926049
17138139 8 17532082985083390723
17349148 13 17385719171601143218
17492 89 17907293605117387543
17804303 29 18412823599249003441
1813 80 18412549841927571013
18222031 100 18270677688170113671
19141452 34 17775002427494233167
193927 3 18341338906756936155
19862831 5 17530686498194398818
200 152 16588022381663776488
20028762 73 18057885956073817583
20374829 77 18410572903236631871
20871999 31 18337117786637799036
21033648 29 17131255892312039915
21033650 10 18046089085349049940
21065201 7 18341891827797866298
21267235 1 18335986445693298475
21728266 224 18188759570664201938
2297311 6 18412833473088575574
23175994 123 17346881152422268889
23366157 5 17897725602754440013
23402539 116 18408315575399129671
23557571 272 18272649000812649592
23559900 14 18413386519095611444
3004659 81 18040430018584867655
314173 85 18272092703678835857
335352 9 18409726267052334141
465052 167 18266466588748397503
474 4 17023763350005520324
5104073 3 18341336712149552321
573450 72 18187920621695786632
602551 16 18412824668690624378
67856867 119 18187367683775908276
7364860 26 18126285491440728585
7495541 125 18202279217511116160
77492 1 17531530876096207384
7970288 3 18337387253029349179
9709674 26 18199470952612142918

>  <PUBCHEM_SHAPE_MULTIPOLES>
396.95
10.64
2.28
1.08
3.76
1.07
-0.1
-6.17
-0.53
-2.96
-0.07
1.72
-0.2
0.22

>  <PUBCHEM_SHAPE_SELFOVERLAP>
888.737

>  <PUBCHEM_SHAPE_VOLUME>
209.3

>  <RI>
-3.81521e+08

>  <Rbt.Current_Directory>
/root/miniconda3/envs/rdock/share/rxdock-2013.1.1_148c5bd1-0/data/ligands/prepped_ligands/Fisetin

>  <Rbt.Executable>
rbdock/0.1.0

>  <Rbt.Library>
librxdock.so/0.1.0

>  <Rbt.Parameter_File>
/root/miniconda3/envs/rdock/share/rxdock-2013.1.1_148c5bd1-0/data/scripts/dock.prm

>  <Rbt.Receptor>
def.prm

>  <SCORE>
-22.8408

>  <SCORE.INTER>
-20.5191

>  <SCORE.INTER.CONST>
1

>  <SCORE.INTER.POLAR>
-2.55315

>  <SCORE.INTER.REPUL>
0.0480299

>  <SCORE.INTER.ROT>
1

>  <SCORE.INTER.VDW>
-18.4785

>  <SCORE.INTER.norm>
-0.977101

>  <SCORE.INTRA>
-1.30825

>  <SCORE.INTRA.DIHEDRAL>
-3.21968

>  <SCORE.INTRA.DIHEDRAL.0>
6.17317

>  <SCORE.INTRA.POLAR>
-0.116849

>  <SCORE.INTRA.POLAR.0>
0

>  <SCORE.INTRA.REPUL>
0

>  <SCORE.INTRA.REPUL.0>
0

>  <SCORE.INTRA.VDW>
0.698879

>  <SCORE.INTRA.VDW.0>
0.491979

>  <SCORE.INTRA.norm>
-0.0622976

>  <SCORE.RESTR>
0.000267993

>  <SCORE.RESTR.CAVITY>
0.000267993

>  <SCORE.RESTR.norm>
1.27616e-05

>  <SCORE.SYSTEM>
-1.01373

>  <SCORE.SYSTEM.CONST>
0

>  <SCORE.SYSTEM.DIHEDRAL>
0.103319

>  <SCORE.SYSTEM.POLAR>
-0.00235356

>  <SCORE.SYSTEM.VDW>
-1.05739

>  <SCORE.SYSTEM.norm>
-0.0482729

>  <SCORE.heavy>
21

>  <SCORE.norm>
-1.08766

$$$$
5281614
  RxDock  02242101193D
librxdock.so/0.1.0
 25 27  0  0  0  0  0  0  0  0999 V2000
  -51.8504   -3.3229   14.8576 O   0  0  0  0  0  0
  -53.2592   -3.6826   18.2449 O   0  0  0  0  0  0
  -51.2791   -1.7577   18.5762 O   0  0  0  0  0  0
  -48.3766   -0.6583   13.0235 O   0  0  0  0  0  0
  -57.1698   -5.4533   16.1439 O   0  0  0  0  0  0
  -56.4401   -7.6218   14.5669 O   0  0  0  0  0  0
  -52.6288   -3.7159   15.9349 C   0  0  0  0  0  0
  -50.6373   -1.8002   16.3073 C   0  0  0  0  0  0
  -50.8809   -2.3754   15.0620 C   0  0  0  0  0  0
  -53.6294   -4.7375   15.5788 C   0  0  0  0  0  0
  -52.4899   -3.2461   17.1881 C   0  0  0  0  0  0
  -51.4508   -2.2230   17.4575 C   0  0  0  0  0  0
  -49.6343   -0.8392   16.4565 C   0  0  0  0  0  0
  -50.1214   -1.9929   13.9560 C   0  0  0  0  0  0
  -54.9432   -4.6156   16.0320 C   0  0  0  0  0  0
  -53.2632   -5.8272   14.7883 C   0  0  0  0  0  0
  -49.1191   -1.0336   14.1009 C   0  0  0  0  0  0
  -48.8763   -0.4579   15.3488 C   0  0  0  0  0  0
  -55.8905   -5.5823   15.6946 C   0  0  0  0  0  0
  -54.2104   -6.7942   14.4512 C   0  0  0  0  0  0
  -55.5239   -6.6717   14.9043 C   0  0  0  0  0  0
  -53.9925   -3.0649   18.3962 H   0  0  0  0  0  0
  -48.6426   -1.1932   12.2557 H   0  0  0  0  0  0
  -57.5703   -4.6537   15.7661 H   0  0  0  0  0  0
  -56.0194   -8.3005   14.0148 H   0  0  0  0  0  0
  1  7  1  0  0  0
  1  9  1  0  0  0
  2 11  1  0  0  0
  2 22  1  0  0  0
  3 12  2  0  0  0
  4 17  1  0  0  0
  4 23  1  0  0  0
  5 19  1  0  0  0
  5 24  1  0  0  0
  6 21  1  0  0  0
  6 25  1  0  0  0
  7 10  1  0  0  0
  7 11  2  0  0  0
  8  9  2  0  0  0
  8 12  1  0  0  0
  8 13  1  0  0  0
  9 14  1  0  0  0
 10 15  2  0  0  0
 10 16  1  0  0  0
 11 12  1  0  0  0
 13 18  2  0  0  0
 14 17  2  0  0  0
 15 19  1  0  0  0
 16 20  2  0  0  0
 17 18  1  0  0  0
 19 21  2  0  0  0
 20 21  1  0  0  0
M  END
>  <CHROM.0>
60.23527992,178.36735727,-37.94815310

>  <CHROM.1>
-97.57605763,-3.32234117,63.74217386,179.74505993,-134.76291886,-52.52040017
-3.56865827,15.65437832,-0.21997523,-0.65657640,-1.96610841

>  <Name>
5281614

>  <PUBCHEM_ATOM_DEF_STEREO_COUNT>
0

>  <PUBCHEM_ATOM_UDEF_STEREO_COUNT>
0

>  <PUBCHEM_BOND_DEF_STEREO_COUNT>
0

>  <PUBCHEM_BOND_UDEF_STEREO_COUNT>
0

>  <PUBCHEM_CACTVS_TAUTO_COUNT>
211

>  <PUBCHEM_COMPONENT_COUNT>
1

>  <PUBCHEM_COMPOUND_CID>
5281614

>  <PUBCHEM_CONFORMER_DIVERSEORDER>
1
3
2
4

>  <PUBCHEM_CONFORMER_ID>
0050974E00000001

>  <PUBCHEM_CONFORMER_RMSD>
0.6

>  <PUBCHEM_COORDINATE_TYPE>
2
5
10

>  <PUBCHEM_EFFECTIVE_ROTOR_COUNT>
1

>  <PUBCHEM_FEATURE_SELFOVERLAP>
45.705

>  <PUBCHEM_HEAVY_ATOM_COUNT>
21

>  <PUBCHEM_ISOTOPIC_ATOM_COUNT>
0

>  <PUBCHEM_MMFF94_ENERGY>
63.3231

>  <PUBCHEM_MMFF94_PARTIAL_CHARGES>
31
1 -0.16
10 0.03
11 0.09
12 0.47
13 -0.15
14 -0.15
15 -0.15
16 -0.15
17 0.08
18 -0.15
19 0.08
2 -0.53
20 -0.15
21 0.08
22 0.15
23 0.15
24 0.15
25 0.15
26 0.15
27 0.15
28 0.45
29 0.45
3 -0.57
30 0.45
31 0.45
4 -0.53
5 -0.53
6 -0.53
7 0.05
8 0.09
9 0.08

>  <PUBCHEM_PHARMACOPHORE_FEATURES>
9
1 1 acceptor
1 2 donor
1 3 acceptor
1 4 donor
1 5 donor
1 6 donor
6 1 7 8 9 11 12 rings
6 10 15 16 19 20 21 rings
6 8 9 13 14 17 18 rings

>  <PUBCHEM_SHAPE_FINGERPRINT>
10319926 262 18197191691463025650
11046707 91 18409165524084290187
11370993 144 16916795041429104491
11543360 7 15574712534293567507
11552529 35 14619643787438718685
11796584 16 18053666872396607318
12236239 1 17676205732828356282
12363563 72 18338520845390468915
12553582 1 18335422383079402043
12788726 201 18187641337300532121
13140716 1 18339079393340139273
13288520 33 18410009940308579395
13862211 1 18410289242354007383
14386348 63 17917992754818192534
14790565 3 17763186834971878929
15196674 1 18337951294098693961
15961568 22 18336260267091762604
16752209 62 18261386724325207555
16945 1 18409726227938926049
17138139 8 17532082985083390723
17349148 13 17385719171601143218
17492 89 17907293605117387543
17804303 29 18412823599249003441
1813 80 18412549841927571013
18222031 100 18270677688170113671
19141452 34 17775002427494233167
193927 3 18341338906756936155
19862831 5 17530686498194398818
200 152 16588022381663776488
20028762 73 18057885956073817583
20374829 77 18410572903236631871
20871999 31 18337117786637799036
21033648 29 17131255892312039915
21033650 10 18046089085349049940
21065201 7 18341891827797866298
21267235 1 18335986445693298475
21728266 224 18188759570664201938
2297311 6 18412833473088575574
23175994 123 17346881152422268889
23366157 5 17897725602754440013
23402539 116 18408315575399129671
23557571 272 18272649000812649592
23559900 14 18413386519095611444
3004659 81 18040430018584867655
314173 85 18272092703678835857
335352 9 18409726267052334141
465052 167 18266466588748397503
474 4 17023763350005520324
5104073 3 18341336712149552321
573450 72 18187920621695786632
602551 16 18412824668690624378
67856867 119 18187367683775908276
7364860 26 18126285491440728585
7495541 125 18202279217511116160
77492 1 17531530876096207384
7970288 3 18337387253029349179
9709674 26 18199470952612142918

>  <PUBCHEM_SHAPE_MULTIPOLES>
396.95
10.64
2.28
1.08
3.76
1.07
-0.1
-6.17
-0.53
-2.96
-0.07
1.72
-0.2
0.22

>  <PUBCHEM_SHAPE_SELFOVERLAP>
888.737

>  <PUBCHEM_SHAPE_VOLUME>
209.3

>  <RI>
-3.81521e+08

>  <Rbt.Current_Directory>
/root/miniconda3/envs/rdock/share/rxdock-2013.1.1_148c5bd1-0/data/ligands/prepped_ligands/Fisetin

>  <Rbt.Executable>
rbdock/0.1.0

>  <Rbt.Library>
librxdock.so/0.1.0

>  <Rbt.Parameter_File>
/root/miniconda3/envs/rdock/share/rxdock-2013.1.1_148c5bd1-0/data/scripts/dock.prm

>  <Rbt.Receptor>
def.prm

>  <SCORE>
-22.8803

>  <SCORE.INTER>
-24.4383

>  <SCORE.INTER.CONST>
1

>  <SCORE.INTER.POLAR>
-3.34765

>  <SCORE.INTER.REPUL>
0.0191435

>  <SCORE.INTER.ROT>
1

>  <SCORE.INTER.VDW>
-19.552

>  <SCORE.INTER.norm>
-1.16373

>  <SCORE.INTRA>
1.91088

>  <SCORE.INTRA.DIHEDRAL>
4.88958

>  <SCORE.INTRA.DIHEDRAL.0>
6.17317

>  <SCORE.INTRA.POLAR>
0

>  <SCORE.INTRA.POLAR.0>
0

>  <SCORE.INTRA.REPUL>
0

>  <SCORE.INTRA.REPUL.0>
0

>  <SCORE.INTRA.VDW>
-0.533906

>  <SCORE.INTRA.VDW.0>
0.491979

>  <SCORE.INTRA.norm>
0.0909944

>  <SCORE.RESTR>
0

>  <SCORE.RESTR.CAVITY>
0

>  <SCORE.RESTR.norm>
0

>  <SCORE.SYSTEM>
-0.352852

>  <SCORE.SYSTEM.CONST>
0

>  <SCORE.SYSTEM.DIHEDRAL>
1.07134

>  <SCORE.SYSTEM.POLAR>
-0.0182885

>  <SCORE.SYSTEM.VDW>
-0.826339

>  <SCORE.SYSTEM.norm>
-0.0168025

>  <SCORE.heavy>
21

>  <SCORE.norm>
-1.08954

$$$$
5281614
  RxDock  02242101193D
librxdock.so/0.1.0
 25 27  0  0  0  0  0  0  0  0999 V2000
  -51.7126   -3.7003   15.0303 O   0  0  0  0  0  0
  -53.4763   -3.8765   18.2624 O   0  0  0  0  0  0
  -51.9492   -1.5633   18.4917 O   0  0  0  0  0  0
  -48.5747   -0.6598   13.1755 O   0  0  0  0  0  0
  -55.4615   -6.7079   13.1806 O   0  0  0  0  0  0
  -55.3514   -8.8411   14.9580 O   0  0  0  0  0  0
  -52.5436   -4.0935   16.0675 C   0  0  0  0  0  0
  -51.0093   -1.7814   16.3398 C   0  0  0  0  0  0
  -50.9715   -2.5572   15.1832 C   0  0  0  0  0  0
  -53.2807   -5.3355   15.7742 C   0  0  0  0  0  0
  -52.6649   -3.4401   17.2375 C   0  0  0  0  0  0
  -51.8789   -2.2008   17.4496 C   0  0  0  0  0  0
  -50.2306   -0.6257   16.4400 C   0  0  0  0  0  0
  -50.1529   -2.1818   14.1177 C   0  0  0  0  0  0
  -54.0325   -5.4412   14.6037 C   0  0  0  0  0  0
  -53.2269   -6.4062   16.6669 C   0  0  0  0  0  0
  -49.3741   -1.0286   14.2138 C   0  0  0  0  0  0
  -49.4131   -0.2522   15.3727 C   0  0  0  0  0  0
  -54.7298   -6.6169   14.3258 C   0  0  0  0  0  0
  -53.9245   -7.5818   16.3892 C   0  0  0  0  0  0
  -54.6759   -7.6872   15.2187 C   0  0  0  0  0  0
  -54.2192   -3.2627   18.3789 H   0  0  0  0  0  0
  -48.7765   -1.2216   12.4074 H   0  0  0  0  0  0
  -55.9606   -7.5405   13.1764 H   0  0  0  0  0  0
  -55.1332   -9.5068   15.6300 H   0  0  0  0  0  0
  1  7  1  0  0  0
  1  9  1  0  0  0
  2 11  1  0  0  0
  2 22  1  0  0  0
  3 12  2  0  0  0
  4 17  1  0  0  0
  4 23  1  0  0  0
  5 19  1  0  0  0
  5 24  1  0  0  0
  6 21  1  0  0  0
  6 25  1  0  0  0
  7 10  1  0  0  0
  7 11  2  0  0  0
  8  9  2  0  0  0
  8 12  1  0  0  0
  8 13  1  0  0  0
  9 14  1  0  0  0
 10 15  2  0  0  0
 10 16  1  0  0  0
 11 12  1  0  0  0
 13 18  2  0  0  0
 14 17  2  0  0  0
 15 19  1  0  0  0
 16 20  2  0  0  0
 17 18  1  0  0  0
 19 21  2  0  0  0
 20 21  1  0  0  0
M  END
>  <CHROM.0>
179.66466335,61.97122598,-63.45696650

>  <CHROM.1>
-111.98801065,9.08156464,-173.90977898,174.24080874,-53.12989504,-52.35932194
-3.97332887,15.62079446,-0.33365773,-0.87315132,-1.95521364

>  <Name>
5281614

>  <PUBCHEM_ATOM_DEF_STEREO_COUNT>
0

>  <PUBCHEM_ATOM_UDEF_STEREO_COUNT>
0

>  <PUBCHEM_BOND_DEF_STEREO_COUNT>
0

>  <PUBCHEM_BOND_UDEF_STEREO_COUNT>
0

>  <PUBCHEM_CACTVS_TAUTO_COUNT>
211

>  <PUBCHEM_COMPONENT_COUNT>
1

>  <PUBCHEM_COMPOUND_CID>
5281614

>  <PUBCHEM_CONFORMER_DIVERSEORDER>
1
3
2
4

>  <PUBCHEM_CONFORMER_ID>
0050974E00000001

>  <PUBCHEM_CONFORMER_RMSD>
0.6

>  <PUBCHEM_COORDINATE_TYPE>
2
5
10

>  <PUBCHEM_EFFECTIVE_ROTOR_COUNT>
1

>  <PUBCHEM_FEATURE_SELFOVERLAP>
45.705

>  <PUBCHEM_HEAVY_ATOM_COUNT>
21

>  <PUBCHEM_ISOTOPIC_ATOM_COUNT>
0

>  <PUBCHEM_MMFF94_ENERGY>
63.3231

>  <PUBCHEM_MMFF94_PARTIAL_CHARGES>
31
1 -0.16
10 0.03
11 0.09
12 0.47
13 -0.15
14 -0.15
15 -0.15
16 -0.15
17 0.08
18 -0.15
19 0.08
2 -0.53
20 -0.15
21 0.08
22 0.15
23 0.15
24 0.15
25 0.15
26 0.15
27 0.15
28 0.45
29 0.45
3 -0.57
30 0.45
31 0.45
4 -0.53
5 -0.53
6 -0.53
7 0.05
8 0.09
9 0.08

>  <PUBCHEM_PHARMACOPHORE_FEATURES>
9
1 1 acceptor
1 2 donor
1 3 acceptor
1 4 donor
1 5 donor
1 6 donor
6 1 7 8 9 11 12 rings
6 10 15 16 19 20 21 rings
6 8 9 13 14 17 18 rings

>  <PUBCHEM_SHAPE_FINGERPRINT>
10319926 262 18197191691463025650
11046707 91 18409165524084290187
11370993 144 16916795041429104491
11543360 7 15574712534293567507
11552529 35 14619643787438718685
11796584 16 18053666872396607318
12236239 1 17676205732828356282
12363563 72 18338520845390468915
12553582 1 18335422383079402043
12788726 201 18187641337300532121
13140716 1 18339079393340139273
13288520 33 18410009940308579395
13862211 1 18410289242354007383
14386348 63 17917992754818192534
14790565 3 17763186834971878929
15196674 1 18337951294098693961
15961568 22 18336260267091762604
16752209 62 18261386724325207555
16945 1 18409726227938926049
17138139 8 17532082985083390723
17349148 13 17385719171601143218
17492 89 17907293605117387543
17804303 29 18412823599249003441
1813 80 18412549841927571013
18222031 100 18270677688170113671
19141452 34 17775002427494233167
193927 3 18341338906756936155
19862831 5 17530686498194398818
200 152 16588022381663776488
20028762 73 18057885956073817583
20374829 77 18410572903236631871
20871999 31 18337117786637799036
21033648 29 17131255892312039915
21033650 10 18046089085349049940
21065201 7 18341891827797866298
21267235 1 18335986445693298475
21728266 224 18188759570664201938
2297311 6 18412833473088575574
23175994 123 17346881152422268889
23366157 5 17897725602754440013
23402539 116 18408315575399129671
23557571 272 18272649000812649592
23559900 14 18413386519095611444
3004659 81 18040430018584867655
314173 85 18272092703678835857
335352 9 18409726267052334141
465052 167 18266466588748397503
474 4 17023763350005520324
5104073 3 18341336712149552321
573450 72 18187920621695786632
602551 16 18412824668690624378
67856867 119 18187367683775908276
7364860 26 18126285491440728585
7495541 125 18202279217511116160
77492 1 17531530876096207384
7970288 3 18337387253029349179
9709674 26 18199470952612142918

>  <PUBCHEM_SHAPE_MULTIPOLES>
396.95
10.64
2.28
1.08
3.76
1.07
-0.1
-6.17
-0.53
-2.96
-0.07
1.72
-0.2
0.22

>  <PUBCHEM_SHAPE_SELFOVERLAP>
888.737

>  <PUBCHEM_SHAPE_VOLUME>
209.3

>  <RI>
-3.81521e+08

>  <Rbt.Current_Directory>
/root/miniconda3/envs/rdock/share/rxdock-2013.1.1_148c5bd1-0/data/ligands/prepped_ligands/Fisetin

>  <Rbt.Executable>
rbdock/0.1.0

>  <Rbt.Library>
librxdock.so/0.1.0

>  <Rbt.Parameter_File>
/root/miniconda3/envs/rdock/share/rxdock-2013.1.1_148c5bd1-0/data/scripts/dock.prm

>  <Rbt.Receptor>
def.prm

>  <SCORE>
-19.1587

>  <SCORE.INTER>
-17.8291

>  <SCORE.INTER.CONST>
1

>  <SCORE.INTER.POLAR>
-1.44844

>  <SCORE.INTER.REPUL>
0.0168038

>  <SCORE.INTER.ROT>
1

>  <SCORE.INTER.VDW>
-19.3884

>  <SCORE.INTER.norm>
-0.849005

>  <SCORE.INTRA>
-0.328807

>  <SCORE.INTRA.DIHEDRAL>
1.2272

>  <SCORE.INTRA.DIHEDRAL.0>
6.17317

>  <SCORE.INTRA.POLAR>
-0.124245

>  <SCORE.INTRA.POLAR.0>
0

>  <SCORE.INTRA.REPUL>
0

>  <SCORE.INTRA.REPUL.0>
0

>  <SCORE.INTRA.VDW>
-0.519977

>  <SCORE.INTRA.VDW.0>
0.491979

>  <SCORE.INTRA.norm>
-0.0156575

>  <SCORE.RESTR>
0

>  <SCORE.RESTR.CAVITY>
0

>  <SCORE.RESTR.norm>
0

>  <SCORE.SYSTEM>
-1.00075

>  <SCORE.SYSTEM.CONST>
0

>  <SCORE.SYSTEM.DIHEDRAL>
0.0520935

>  <SCORE.SYSTEM.VDW>
-1.0268

>  <SCORE.SYSTEM.norm>
-0.0476548

>  <SCORE.heavy>
21

>  <SCORE.norm>
-0.912318

$$$$
5281614
  RxDock  02242101193D
librxdock.so/0.1.0
 25 27  0  0  0  0  0  0  0  0999 V2000
  -47.5209    0.2781   13.5461 O   0  0  0  0  0  0
  -51.0362   -0.7737   13.1939 O   0  0  0  0  0  0
  -49.8788   -2.8715   14.6066 O   0  0  0  0  0  0
  -43.6986   -1.6973   15.5510 O   0  0  0  0  0  0
  -52.3789    3.3462   11.8994 O   0  0  0  0  0  0
  -50.5549    4.8014   10.3904 O   0  0  0  0  0  0
  -48.8711    0.2486   13.2347 C   0  0  0  0  0  0
  -47.7384   -1.8817   14.6322 C   0  0  0  0  0  0
  -46.9860   -0.7771   14.2388 C   0  0  0  0  0  0
  -49.3155    1.4404   12.4904 C   0  0  0  0  0  0
  -49.7043   -0.7605   13.5477 C   0  0  0  0  0  0
  -49.1690   -1.9253   14.2929 C   0  0  0  0  0  0
  -47.1390   -2.9293   15.3359 C   0  0  0  0  0  0
  -45.6268   -0.7132   14.5466 C   0  0  0  0  0  0
  -50.6513    1.8391   12.5443 C   0  0  0  0  0  0
  -48.4004    2.1705   11.7315 C   0  0  0  0  0  0
  -45.0246   -1.7571   15.2491 C   0  0  0  0  0  0
  -45.7795   -2.8628   15.6430 C   0  0  0  0  0  0
  -51.0719    2.9674   11.8402 C   0  0  0  0  0  0
  -48.8211    3.2986   11.0270 C   0  0  0  0  0  0
  -50.1568    3.6970   11.0814 C   0  0  0  0  0  0
  -51.4500   -1.5975   13.4978 H   0  0  0  0  0  0
  -43.3921   -2.5858   15.8017 H   0  0  0  0  0  0
  -52.7999    2.9488   12.6787 H   0  0  0  0  0  0
  -51.4832    4.9985   10.5952 H   0  0  0  0  0  0
  1  7  1  0  0  0
  1  9  1  0  0  0
  2 11  1  0  0  0
  2 22  1  0  0  0
  3 12  2  0  0  0
  4 17  1  0  0  0
  4 23  1  0  0  0
  5 19  1  0  0  0
  5 24  1  0  0  0
  6 21  1  0  0  0
  6 25  1  0  0  0
  7 10  1  0  0  0
  7 11  2  0  0  0
  8  9  2  0  0  0
  8 12  1  0  0  0
  8 13  1  0  0  0
  9 14  1  0  0  0
 10 15  2  0  0  0
 10 16  1  0  0  0
 11 12  1  0  0  0
 13 18  2  0  0  0
 14 17  2  0  0  0
 15 19  1  0  0  0
 16 20  2  0  0  0
 17 18  1  0  0  0
 19 21  2  0  0  0
 20 21  1  0  0  0
M  END
>  <CHROM.0>
-172.75428038,-176.92116529,-55.38134969

>  <CHROM.1>
178.71946404,-163.90465092,19.68494008,5.40279054,-155.05995007,-48.60157334
0.27462863,13.34838721,-0.94852785,-0.14358976,-0.50105832

>  <Name>
5281614

>  <PUBCHEM_ATOM_DEF_STEREO_COUNT>
0

>  <PUBCHEM_ATOM_UDEF_STEREO_COUNT>
0

>  <PUBCHEM_BOND_DEF_STEREO_COUNT>
0

>  <PUBCHEM_BOND_UDEF_STEREO_COUNT>
0

>  <PUBCHEM_CACTVS_TAUTO_COUNT>
211

>  <PUBCHEM_COMPONENT_COUNT>
1

>  <PUBCHEM_COMPOUND_CID>
5281614

>  <PUBCHEM_CONFORMER_DIVERSEORDER>
1
3
2
4

>  <PUBCHEM_CONFORMER_ID>
0050974E00000001

>  <PUBCHEM_CONFORMER_RMSD>
0.6

>  <PUBCHEM_COORDINATE_TYPE>
2
5
10

>  <PUBCHEM_EFFECTIVE_ROTOR_COUNT>
1

>  <PUBCHEM_FEATURE_SELFOVERLAP>
45.705

>  <PUBCHEM_HEAVY_ATOM_COUNT>
21

>  <PUBCHEM_ISOTOPIC_ATOM_COUNT>
0

>  <PUBCHEM_MMFF94_ENERGY>
63.3231

>  <PUBCHEM_MMFF94_PARTIAL_CHARGES>
31
1 -0.16
10 0.03
11 0.09
12 0.47
13 -0.15
14 -0.15
15 -0.15
16 -0.15
17 0.08
18 -0.15
19 0.08
2 -0.53
20 -0.15
21 0.08
22 0.15
23 0.15
24 0.15
25 0.15
26 0.15
27 0.15
28 0.45
29 0.45
3 -0.57
30 0.45
31 0.45
4 -0.53
5 -0.53
6 -0.53
7 0.05
8 0.09
9 0.08

>  <PUBCHEM_PHARMACOPHORE_FEATURES>
9
1 1 acceptor
1 2 donor
1 3 acceptor
1 4 donor
1 5 donor
1 6 donor
6 1 7 8 9 11 12 rings
6 10 15 16 19 20 21 rings
6 8 9 13 14 17 18 rings

>  <PUBCHEM_SHAPE_FINGERPRINT>
10319926 262 18197191691463025650
11046707 91 18409165524084290187
11370993 144 16916795041429104491
11543360 7 15574712534293567507
11552529 35 14619643787438718685
11796584 16 18053666872396607318
12236239 1 17676205732828356282
12363563 72 18338520845390468915
12553582 1 18335422383079402043
12788726 201 18187641337300532121
13140716 1 18339079393340139273
13288520 33 18410009940308579395
13862211 1 18410289242354007383
14386348 63 17917992754818192534
14790565 3 17763186834971878929
15196674 1 18337951294098693961
15961568 22 18336260267091762604
16752209 62 18261386724325207555
16945 1 18409726227938926049
17138139 8 17532082985083390723
17349148 13 17385719171601143218
17492 89 17907293605117387543
17804303 29 18412823599249003441
1813 80 18412549841927571013
18222031 100 18270677688170113671
19141452 34 17775002427494233167
193927 3 18341338906756936155
19862831 5 17530686498194398818
200 152 16588022381663776488
20028762 73 18057885956073817583
20374829 77 18410572903236631871
20871999 31 18337117786637799036
21033648 29 17131255892312039915
21033650 10 18046089085349049940
21065201 7 18341891827797866298
21267235 1 18335986445693298475
21728266 224 18188759570664201938
2297311 6 18412833473088575574
23175994 123 17346881152422268889
23366157 5 17897725602754440013
23402539 116 18408315575399129671
23557571 272 18272649000812649592
23559900 14 18413386519095611444
3004659 81 18040430018584867655
314173 85 18272092703678835857
335352 9 18409726267052334141
465052 167 18266466588748397503
474 4 17023763350005520324
5104073 3 18341336712149552321
573450 72 18187920621695786632
602551 16 18412824668690624378
67856867 119 18187367683775908276
7364860 26 18126285491440728585
7495541 125 18202279217511116160
77492 1 17531530876096207384
7970288 3 18337387253029349179
9709674 26 18199470952612142918

>  <PUBCHEM_SHAPE_MULTIPOLES>
396.95
10.64
2.28
1.08
3.76
1.07
-0.1
-6.17
-0.53
-2.96
-0.07
1.72
-0.2
0.22

>  <PUBCHEM_SHAPE_SELFOVERLAP>
888.737

>  <PUBCHEM_SHAPE_VOLUME>
209.3

>  <RI>
-3.81521e+08

>  <Rbt.Current_Directory>
/root/miniconda3/envs/rdock/share/rxdock-2013.1.1_148c5bd1-0/data/ligands/prepped_ligands/Fisetin

>  <Rbt.Executable>
rbdock/0.1.0

>  <Rbt.Library>
librxdock.so/0.1.0

>  <Rbt.Parameter_File>
/root/miniconda3/envs/rdock/share/rxdock-2013.1.1_148c5bd1-0/data/scripts/dock.prm

>  <Rbt.Receptor>
def.prm

>  <SCORE>
-20.7836

>  <SCORE.INTER>
-18.5093

>  <SCORE.INTER.CONST>
1

>  <SCORE.INTER.POLAR>
-1.30414

>  <SCORE.INTER.REPUL>
0

>  <SCORE.INTER.ROT>
1

>  <SCORE.INTER.VDW>
-20.4752

>  <SCORE.INTER.norm>
-0.881394

>  <SCORE.INTRA>
-1.95072

>  <SCORE.INTRA.DIHEDRAL>
-4.3298

>  <SCORE.INTRA.DIHEDRAL.0>
6.17317

>  <SCORE.INTRA.POLAR>
-0.11605

>  <SCORE.INTRA.POLAR.0>
0

>  <SCORE.INTRA.REPUL>
0

>  <SCORE.INTRA.REPUL.0>
0

>  <SCORE.INTRA.VDW>
0.608758

>  <SCORE.INTRA.VDW.0>
0.491979

>  <SCORE.INTRA.norm>
-0.0928912

>  <SCORE.RESTR>
0.617748

>  <SCORE.RESTR.CAVITY>
0.617748

>  <SCORE.RESTR.norm>
0.0294166

>  <SCORE.SYSTEM>
-0.941359

>  <SCORE.SYSTEM.CONST>
0

>  <SCORE.SYSTEM.DIHEDRAL>
0.218282

>  <SCORE.SYSTEM.POLAR>
-0.010791

>  <SCORE.SYSTEM.VDW>
-1.01381

>  <SCORE.SYSTEM.norm>
-0.0448266

>  <SCORE.heavy>
21

>  <SCORE.norm>
-0.989695

$$$$
5281614
  RxDock  02242101193D
librxdock.so/0.1.0
 25 27  0  0  0  0  0  0  0  0999 V2000
  -46.4531   -2.2723   17.5908 O   0  0  0  0  0  0
  -45.3236   -2.9934   14.1568 O   0  0  0  0  0  0
  -43.0595   -1.9190   15.3630 O   0  0  0  0  0  0
  -44.3391   -0.4007   21.4065 O   0  0  0  0  0  0
  -50.1358   -2.6473   13.1422 O   0  0  0  0  0  0
  -51.3086   -4.7881   14.4700 O   0  0  0  0  0  0
  -46.4081   -2.6910   16.2703 C   0  0  0  0  0  0
  -44.1263   -1.5975   17.4416 C   0  0  0  0  0  0
  -45.3180   -1.7430   18.1483 C   0  0  0  0  0  0
  -47.6921   -3.2376   15.7966 C   0  0  0  0  0  0
  -45.3254   -2.5977   15.4769 C   0  0  0  0  0  0
  -44.0759   -2.0273   16.0357 C   0  0  0  0  0  0
  -43.0004   -1.0500   18.0618 C   0  0  0  0  0  0
  -45.3919   -1.3408   19.4822 C   0  0  0  0  0  0
  -48.3182   -2.6816   14.6807 C   0  0  0  0  0  0
  -48.2820   -4.3114   16.4637 C   0  0  0  0  0  0
  -44.2699   -0.7938   20.1050 C   0  0  0  0  0  0
  -43.0767   -0.6489   19.3961 C   0  0  0  0  0  0
  -49.5332   -3.1992   14.2319 C   0  0  0  0  0  0
  -49.4973   -4.8288   16.0152 C   0  0  0  0  0  0
  -50.1228   -4.2728   14.8993 C   0  0  0  0  0  0
  -46.0435   -3.6255   14.0010 H   0  0  0  0  0  0
  -45.2057   -0.6559   21.7671 H   0  0  0  0  0  0
  -49.4666   -2.2372   12.5708 H   0  0  0  0  0  0
  -51.4035   -5.7001   14.7889 H   0  0  0  0  0  0
  1  7  1  0  0  0
  1  9  1  0  0  0
  2 11  1  0  0  0
  2 22  1  0  0  0
  3 12  2  0  0  0
  4 17  1  0  0  0
  4 23  1  0  0  0
  5 19  1  0  0  0
  5 24  1  0  0  0
  6 21  1  0  0  0
  6 25  1  0  0  0
  7 10  1  0  0  0
  7 11  2  0  0  0
  8  9  2  0  0  0
  8 12  1  0  0  0
  8 13  1  0  0  0
  9 14  1  0  0  0
 10 15  2  0  0  0
 10 16  1  0  0  0
 11 12  1  0  0  0
 13 18  2  0  0  0
 14 17  2  0  0  0
 15 19  1  0  0  0
 16 20  2  0  0  0
 17 18  1  0  0  0
 19 21  2  0  0  0
 20 21  1  0  0  0
M  END
>  <CHROM.0>
-165.72218939,-63.98860415,56.85290975

>  <CHROM.1>
-21.56573743,5.74524223,26.42193760,157.72184513,122.80260441,-46.47855686
-2.48839893,16.55739795,0.68060106,0.31132008,1.37628545

>  <Name>
5281614

>  <PUBCHEM_ATOM_DEF_STEREO_COUNT>
0

>  <PUBCHEM_ATOM_UDEF_STEREO_COUNT>
0

>  <PUBCHEM_BOND_DEF_STEREO_COUNT>
0

>  <PUBCHEM_BOND_UDEF_STEREO_COUNT>
0

>  <PUBCHEM_CACTVS_TAUTO_COUNT>
211

>  <PUBCHEM_COMPONENT_COUNT>
1

>  <PUBCHEM_COMPOUND_CID>
5281614

>  <PUBCHEM_CONFORMER_DIVERSEORDER>
1
3
2
4

>  <PUBCHEM_CONFORMER_ID>
0050974E00000001

>  <PUBCHEM_CONFORMER_RMSD>
0.6

>  <PUBCHEM_COORDINATE_TYPE>
2
5
10

>  <PUBCHEM_EFFECTIVE_ROTOR_COUNT>
1

>  <PUBCHEM_FEATURE_SELFOVERLAP>
45.705

>  <PUBCHEM_HEAVY_ATOM_COUNT>
21

>  <PUBCHEM_ISOTOPIC_ATOM_COUNT>
0

>  <PUBCHEM_MMFF94_ENERGY>
63.3231

>  <PUBCHEM_MMFF94_PARTIAL_CHARGES>
31
1 -0.16
10 0.03
11 0.09
12 0.47
13 -0.15
14 -0.15
15 -0.15
16 -0.15
17 0.08
18 -0.15
19 0.08
2 -0.53
20 -0.15
21 0.08
22 0.15
23 0.15
24 0.15
25 0.15
26 0.15
27 0.15
28 0.45
29 0.45
3 -0.57
30 0.45
31 0.45
4 -0.53
5 -0.53
6 -0.53
7 0.05
8 0.09
9 0.08

>  <PUBCHEM_PHARMACOPHORE_FEATURES>
9
1 1 acceptor
1 2 donor
1 3 acceptor
1 4 donor
1 5 donor
1 6 donor
6 1 7 8 9 11 12 rings
6 10 15 16 19 20 21 rings
6 8 9 13 14 17 18 rings

>  <PUBCHEM_SHAPE_FINGERPRINT>
10319926 262 18197191691463025650
11046707 91 18409165524084290187
11370993 144 16916795041429104491
11543360 7 15574712534293567507
11552529 35 14619643787438718685
11796584 16 18053666872396607318
12236239 1 17676205732828356282
12363563 72 18338520845390468915
12553582 1 18335422383079402043
12788726 201 18187641337300532121
13140716 1 18339079393340139273
13288520 33 18410009940308579395
13862211 1 18410289242354007383
14386348 63 17917992754818192534
14790565 3 17763186834971878929
15196674 1 18337951294098693961
15961568 22 18336260267091762604
16752209 62 18261386724325207555
16945 1 18409726227938926049
17138139 8 17532082985083390723
17349148 13 17385719171601143218
17492 89 17907293605117387543
17804303 29 18412823599249003441
1813 80 18412549841927571013
18222031 100 18270677688170113671
19141452 34 17775002427494233167
193927 3 18341338906756936155
19862831 5 17530686498194398818
200 152 16588022381663776488
20028762 73 18057885956073817583
20374829 77 18410572903236631871
20871999 31 18337117786637799036
21033648 29 17131255892312039915
21033650 10 18046089085349049940
21065201 7 18341891827797866298
21267235 1 18335986445693298475
21728266 224 18188759570664201938
2297311 6 18412833473088575574
23175994 123 17346881152422268889
23366157 5 17897725602754440013
23402539 116 18408315575399129671
23557571 272 18272649000812649592
23559900 14 18413386519095611444
3004659 81 18040430018584867655
314173 85 18272092703678835857
335352 9 18409726267052334141
465052 167 18266466588748397503
474 4 17023763350005520324
5104073 3 18341336712149552321
573450 72 18187920621695786632
602551 16 18412824668690624378
67856867 119 18187367683775908276
7364860 26 18126285491440728585
7495541 125 18202279217511116160
77492 1 17531530876096207384
7970288 3 18337387253029349179
9709674 26 18199470952612142918

>  <PUBCHEM_SHAPE_MULTIPOLES>
396.95
10.64
2.28
1.08
3.76
1.07
-0.1
-6.17
-0.53
-2.96
-0.07
1.72
-0.2
0.22

>  <PUBCHEM_SHAPE_SELFOVERLAP>
888.737

>  <PUBCHEM_SHAPE_VOLUME>
209.3

>  <RI>
-3.81521e+08

>  <Rbt.Current_Directory>
/root/miniconda3/envs/rdock/share/rxdock-2013.1.1_148c5bd1-0/data/ligands/prepped_ligands/Fisetin

>  <Rbt.Executable>
rbdock/0.1.0

>  <Rbt.Library>
librxdock.so/0.1.0

>  <Rbt.Parameter_File>
/root/miniconda3/envs/rdock/share/rxdock-2013.1.1_148c5bd1-0/data/scripts/dock.prm

>  <Rbt.Receptor>
def.prm

>  <SCORE>
-17.4498

>  <SCORE.INTER>
-16.26

>  <SCORE.INTER.CONST>
1

>  <SCORE.INTER.POLAR>
-1.88199

>  <SCORE.INTER.REPUL>
0

>  <SCORE.INTER.ROT>
1

>  <SCORE.INTER.VDW>
-16.2612

>  <SCORE.INTER.norm>
-0.774285

>  <SCORE.INTRA>
-0.449268

>  <SCORE.INTRA.DIHEDRAL>
-0.513761

>  <SCORE.INTRA.DIHEDRAL.0>
6.17317

>  <SCORE.INTRA.POLAR>
0

>  <SCORE.INTRA.POLAR.0>
0

>  <SCORE.INTRA.REPUL>
0

>  <SCORE.INTRA.REPUL.0>
0

>  <SCORE.INTRA.VDW>
-0.192388

>  <SCORE.INTRA.VDW.0>
0.491979

>  <SCORE.INTRA.norm>
-0.0213937

>  <SCORE.RESTR>
0

>  <SCORE.RESTR.CAVITY>
0

>  <SCORE.RESTR.norm>
0

>  <SCORE.SYSTEM>
-0.740549

>  <SCORE.SYSTEM.CONST>
0

>  <SCORE.SYSTEM.DIHEDRAL>
0.575738

>  <SCORE.SYSTEM.VDW>
-1.02842

>  <SCORE.SYSTEM.norm>
-0.0352642

>  <SCORE.heavy>
21

>  <SCORE.norm>
-0.830943

$$$$
