5281614
  RxDock  02242109463D
librxdock.so/0.1.0
 25 27  0  0  0  0  0  0  0  0999 V2000
  -47.2970   -0.4189   14.4987 O   0  0  0  0  0  0
  -50.4748   -1.6872   13.1271 O   0  0  0  0  0  0
  -49.6364   -3.7413   14.8045 O   0  0  0  0  0  0
  -44.0975   -2.1933   17.5230 O   0  0  0  0  0  0
  -51.2745    3.3144   12.7197 O   0  0  0  0  0  0
  -49.5873    3.9730   10.6123 O   0  0  0  0  0  0
  -48.4923   -0.5279   13.8057 C   0  0  0  0  0  0
  -47.6708   -2.6156   15.4611 C   0  0  0  0  0  0
  -46.9152   -1.4548   15.3115 C   0  0  0  0  0  0
  -48.7822    0.6514   12.9707 C   0  0  0  0  0  0
  -49.3082   -1.5967   13.8552 C   0  0  0  0  0  0
  -48.9336   -2.7432   14.7177 C   0  0  0  0  0  0
  -47.2312   -3.6400   16.3033 C   0  0  0  0  0  0
  -45.7127   -1.3107   16.0039 C   0  0  0  0  0  0
  -49.9027    1.4381   13.2390 C   0  0  0  0  0  0
  -47.9363    0.9817   11.9117 C   0  0  0  0  0  0
  -45.2704   -2.3312   16.8459 C   0  0  0  0  0  0
  -46.0283   -3.4934   16.9952 C   0  0  0  0  0  0
  -50.1770    2.5546   12.4491 C   0  0  0  0  0  0
  -48.2107    2.0979   11.1215 C   0  0  0  0  0  0
  -49.3309    2.8844   11.3902 C   0  0  0  0  0  0
  -50.2682   -1.7722   12.1825 H   0  0  0  0  0  0
  -43.6256   -1.4147   17.1804 H   0  0  0  0  0  0
  -51.7697    3.4775   11.9008 H   0  0  0  0  0  0
  -50.2445    4.5391   11.0482 H   0  0  0  0  0  0
  1  7  1  0  0  0
  1  9  1  0  0  0
  2 11  1  0  0  0
  2 22  1  0  0  0
  3 12  2  0  0  0
  4 17  1  0  0  0
  4 23  1  0  0  0
  5 19  1  0  0  0
  5 24  1  0  0  0
  6 21  1  0  0  0
  6 25  1  0  0  0
  7 10  1  0  0  0
  7 11  2  0  0  0
  8  9  2  0  0  0
  8 12  1  0  0  0
  8 13  1  0  0  0
  9 14  1  0  0  0
 10 15  2  0  0  0
 10 16  1  0  0  0
 11 12  1  0  0  0
 13 18  2  0  0  0
 14 17  2  0  0  0
 15 19  1  0  0  0
 16 20  2  0  0  0
 17 18  1  0  0  0
 19 21  2  0  0  0
 20 21  1  0  0  0
M  END
>  <CHROM.0>
177.09077354,-59.01534925,-56.38980009

>  <CHROM.1>
69.12524930,-10.50682008,-131.82617373,14.54267740,-116.60474943,-48.24332237
-0.42098242,14.05254459,-1.05969297,-0.42701674,-0.47859839

>  <Name>
5281614

>  <PUBCHEM_ATOM_DEF_STEREO_COUNT>
0

>  <PUBCHEM_ATOM_UDEF_STEREO_COUNT>
0

>  <PUBCHEM_BOND_DEF_STEREO_COUNT>
0

>  <PUBCHEM_BOND_UDEF_STEREO_COUNT>
0

>  <PUBCHEM_CACTVS_TAUTO_COUNT>
211

>  <PUBCHEM_COMPONENT_COUNT>
1

>  <PUBCHEM_COMPOUND_CID>
5281614

>  <PUBCHEM_CONFORMER_DIVERSEORDER>
1
3
2
4

>  <PUBCHEM_CONFORMER_ID>
0050974E00000001

>  <PUBCHEM_CONFORMER_RMSD>
0.6

>  <PUBCHEM_COORDINATE_TYPE>
2
5
10

>  <PUBCHEM_EFFECTIVE_ROTOR_COUNT>
1

>  <PUBCHEM_FEATURE_SELFOVERLAP>
45.705

>  <PUBCHEM_HEAVY_ATOM_COUNT>
21

>  <PUBCHEM_ISOTOPIC_ATOM_COUNT>
0

>  <PUBCHEM_MMFF94_ENERGY>
63.3231

>  <PUBCHEM_MMFF94_PARTIAL_CHARGES>
31
1 -0.16
10 0.03
11 0.09
12 0.47
13 -0.15
14 -0.15
15 -0.15
16 -0.15
17 0.08
18 -0.15
19 0.08
2 -0.53
20 -0.15
21 0.08
22 0.15
23 0.15
24 0.15
25 0.15
26 0.15
27 0.15
28 0.45
29 0.45
3 -0.57
30 0.45
31 0.45
4 -0.53
5 -0.53
6 -0.53
7 0.05
8 0.09
9 0.08

>  <PUBCHEM_PHARMACOPHORE_FEATURES>
9
1 1 acceptor
1 2 donor
1 3 acceptor
1 4 donor
1 5 donor
1 6 donor
6 1 7 8 9 11 12 rings
6 10 15 16 19 20 21 rings
6 8 9 13 14 17 18 rings

>  <PUBCHEM_SHAPE_FINGERPRINT>
10319926 262 18197191691463025650
11046707 91 18409165524084290187
11370993 144 16916795041429104491
11543360 7 15574712534293567507
11552529 35 14619643787438718685
11796584 16 18053666872396607318
12236239 1 17676205732828356282
12363563 72 18338520845390468915
12553582 1 18335422383079402043
12788726 201 18187641337300532121
13140716 1 18339079393340139273
13288520 33 18410009940308579395
13862211 1 18410289242354007383
14386348 63 17917992754818192534
14790565 3 17763186834971878929
15196674 1 18337951294098693961
15961568 22 18336260267091762604
16752209 62 18261386724325207555
16945 1 18409726227938926049
17138139 8 17532082985083390723
17349148 13 17385719171601143218
17492 89 17907293605117387543
17804303 29 18412823599249003441
1813 80 18412549841927571013
18222031 100 18270677688170113671
19141452 34 17775002427494233167
193927 3 18341338906756936155
19862831 5 17530686498194398818
200 152 16588022381663776488
20028762 73 18057885956073817583
20374829 77 18410572903236631871
20871999 31 18337117786637799036
21033648 29 17131255892312039915
21033650 10 18046089085349049940
21065201 7 18341891827797866298
21267235 1 18335986445693298475
21728266 224 18188759570664201938
2297311 6 18412833473088575574
23175994 123 17346881152422268889
23366157 5 17897725602754440013
23402539 116 18408315575399129671
23557571 272 18272649000812649592
23559900 14 18413386519095611444
3004659 81 18040430018584867655
314173 85 18272092703678835857
335352 9 18409726267052334141
465052 167 18266466588748397503
474 4 17023763350005520324
5104073 3 18341336712149552321
573450 72 18187920621695786632
602551 16 18412824668690624378
67856867 119 18187367683775908276
7364860 26 18126285491440728585
7495541 125 18202279217511116160
77492 1 17531530876096207384
7970288 3 18337387253029349179
9709674 26 18199470952612142918

>  <PUBCHEM_SHAPE_MULTIPOLES>
396.95
10.64
2.28
1.08
3.76
1.07
-0.1
-6.17
-0.53
-2.96
-0.07
1.72
-0.2
0.22

>  <PUBCHEM_SHAPE_SELFOVERLAP>
888.737

>  <PUBCHEM_SHAPE_VOLUME>
209.3

>  <RI>
-9.61187e+08

>  <Rbt.Current_Directory>
/root/miniconda3/envs/rdock/share/rxdock-2013.1.1_148c5bd1-0/data/ligands/prepped_ligands/Fisetin

>  <Rbt.Executable>
rbdock/0.1.0

>  <Rbt.Library>
librxdock.so/0.1.0

>  <Rbt.Parameter_File>
/root/miniconda3/envs/rdock/share/rxdock-2013.1.1_148c5bd1-0/data/scripts/dock.prm

>  <Rbt.Receptor>
def.prm

>  <SCORE>
-18.6319

>  <SCORE.INTER>
-19.2057

>  <SCORE.INTER.CONST>
1

>  <SCORE.INTER.POLAR>
-1.60358

>  <SCORE.INTER.REPUL>
0.0370507

>  <SCORE.INTER.ROT>
1

>  <SCORE.INTER.VDW>
-20.3387

>  <SCORE.INTER.norm>
-0.914555

>  <SCORE.INTRA>
1.28666

>  <SCORE.INTRA.DIHEDRAL>
5.03737

>  <SCORE.INTRA.DIHEDRAL.0>
6.17317

>  <SCORE.INTRA.POLAR>
0

>  <SCORE.INTRA.POLAR.0>
0

>  <SCORE.INTRA.REPUL>
0

>  <SCORE.INTRA.REPUL.0>
0

>  <SCORE.INTRA.VDW>
-1.23203

>  <SCORE.INTRA.VDW.0>
0.491979

>  <SCORE.INTRA.norm>
0.0612693

>  <SCORE.RESTR>
0.284001

>  <SCORE.RESTR.CAVITY>
0.284001

>  <SCORE.RESTR.norm>
0.0135238

>  <SCORE.SYSTEM>
-0.996892

>  <SCORE.SYSTEM.CONST>
0

>  <SCORE.SYSTEM.DIHEDRAL>
0.0571026

>  <SCORE.SYSTEM.POLAR>
-0.00893932

>  <SCORE.SYSTEM.VDW>
-0.995049

>  <SCORE.SYSTEM.norm>
-0.047471

>  <SCORE.heavy>
21

>  <SCORE.norm>
-0.887233

$$$$
5281614
  RxDock  02242109463D
librxdock.so/0.1.0
 25 27  0  0  0  0  0  0  0  0999 V2000
  -51.0066   -2.3658   14.4809 O   0  0  0  0  0  0
  -50.1925    0.5212   16.6235 O   0  0  0  0  0  0
  -51.5239   -1.2037   18.3521 O   0  0  0  0  0  0
  -53.2653   -6.4712   15.2396 O   0  0  0  0  0  0
  -50.6059    2.2525   11.4681 O   0  0  0  0  0  0
  -47.9085    1.8299   10.9509 O   0  0  0  0  0  0
  -50.5194   -1.1534   14.9431 C   0  0  0  0  0  0
  -51.8693   -2.8485   16.6977 C   0  0  0  0  0  0
  -51.6620   -3.1863   15.3621 C   0  0  0  0  0  0
  -49.8386   -0.3707   13.8963 C   0  0  0  0  0  0
  -50.6604   -0.7053   16.2040 C   0  0  0  0  0  0
  -51.3667   -1.5572   17.1911 C   0  0  0  0  0  0
  -52.5457   -3.7246   17.5503 C   0  0  0  0  0  0
  -52.1311   -4.4043   14.8694 C   0  0  0  0  0  0
  -50.5475    0.5834   13.1660 C   0  0  0  0  0  0
  -48.4848   -0.5835   13.6353 C   0  0  0  0  0  0
  -52.8067   -5.2819   15.7175 C   0  0  0  0  0  0
  -53.0134   -4.9425   17.0553 C   0  0  0  0  0  0
  -49.9031    1.3247   12.1755 C   0  0  0  0  0  0
  -47.8404    0.1574   12.6446 C   0  0  0  0  0  0
  -48.5495    1.1115   11.9148 C   0  0  0  0  0  0
  -49.9818    0.4875   17.5704 H   0  0  0  0  0  0
  -52.5058   -7.0494   15.0522 H   0  0  0  0  0  0
  -50.2444    2.3218   10.5698 H   0  0  0  0  0  0
  -47.0176    2.0651   11.2564 H   0  0  0  0  0  0
  1  7  1  0  0  0
  1  9  1  0  0  0
  2 11  1  0  0  0
  2 22  1  0  0  0
  3 12  2  0  0  0
  4 17  1  0  0  0
  4 23  1  0  0  0
  5 19  1  0  0  0
  5 24  1  0  0  0
  6 21  1  0  0  0
  6 25  1  0  0  0
  7 10  1  0  0  0
  7 11  2  0  0  0
  8  9  2  0  0  0
  8 12  1  0  0  0
  8 13  1  0  0  0
  9 14  1  0  0  0
 10 15  2  0  0  0
 10 16  1  0  0  0
 11 12  1  0  0  0
 13 18  2  0  0  0
 14 17  2  0  0  0
 15 19  1  0  0  0
 16 20  2  0  0  0
 17 18  1  0  0  0
 19 21  2  0  0  0
 20 21  1  0  0  0
M  END
>  <CHROM.0>
60.33839534,178.06110508,54.31729947

>  <CHROM.1>
-151.78973901,69.79315745,-148.81601876,140.25906004,93.58948775,-50.75942755
-1.43045520,14.73244268,2.94676422,1.10443362,1.13543603

>  <Name>
5281614

>  <PUBCHEM_ATOM_DEF_STEREO_COUNT>
0

>  <PUBCHEM_ATOM_UDEF_STEREO_COUNT>
0

>  <PUBCHEM_BOND_DEF_STEREO_COUNT>
0

>  <PUBCHEM_BOND_UDEF_STEREO_COUNT>
0

>  <PUBCHEM_CACTVS_TAUTO_COUNT>
211

>  <PUBCHEM_COMPONENT_COUNT>
1

>  <PUBCHEM_COMPOUND_CID>
5281614

>  <PUBCHEM_CONFORMER_DIVERSEORDER>
1
3
2
4

>  <PUBCHEM_CONFORMER_ID>
0050974E00000001

>  <PUBCHEM_CONFORMER_RMSD>
0.6

>  <PUBCHEM_COORDINATE_TYPE>
2
5
10

>  <PUBCHEM_EFFECTIVE_ROTOR_COUNT>
1

>  <PUBCHEM_FEATURE_SELFOVERLAP>
45.705

>  <PUBCHEM_HEAVY_ATOM_COUNT>
21

>  <PUBCHEM_ISOTOPIC_ATOM_COUNT>
0

>  <PUBCHEM_MMFF94_ENERGY>
63.3231

>  <PUBCHEM_MMFF94_PARTIAL_CHARGES>
31
1 -0.16
10 0.03
11 0.09
12 0.47
13 -0.15
14 -0.15
15 -0.15
16 -0.15
17 0.08
18 -0.15
19 0.08
2 -0.53
20 -0.15
21 0.08
22 0.15
23 0.15
24 0.15
25 0.15
26 0.15
27 0.15
28 0.45
29 0.45
3 -0.57
30 0.45
31 0.45
4 -0.53
5 -0.53
6 -0.53
7 0.05
8 0.09
9 0.08

>  <PUBCHEM_PHARMACOPHORE_FEATURES>
9
1 1 acceptor
1 2 donor
1 3 acceptor
1 4 donor
1 5 donor
1 6 donor
6 1 7 8 9 11 12 rings
6 10 15 16 19 20 21 rings
6 8 9 13 14 17 18 rings

>  <PUBCHEM_SHAPE_FINGERPRINT>
10319926 262 18197191691463025650
11046707 91 18409165524084290187
11370993 144 16916795041429104491
11543360 7 15574712534293567507
11552529 35 14619643787438718685
11796584 16 18053666872396607318
12236239 1 17676205732828356282
12363563 72 18338520845390468915
12553582 1 18335422383079402043
12788726 201 18187641337300532121
13140716 1 18339079393340139273
13288520 33 18410009940308579395
13862211 1 18410289242354007383
14386348 63 17917992754818192534
14790565 3 17763186834971878929
15196674 1 18337951294098693961
15961568 22 18336260267091762604
16752209 62 18261386724325207555
16945 1 18409726227938926049
17138139 8 17532082985083390723
17349148 13 17385719171601143218
17492 89 17907293605117387543
17804303 29 18412823599249003441
1813 80 18412549841927571013
18222031 100 18270677688170113671
19141452 34 17775002427494233167
193927 3 18341338906756936155
19862831 5 17530686498194398818
200 152 16588022381663776488
20028762 73 18057885956073817583
20374829 77 18410572903236631871
20871999 31 18337117786637799036
21033648 29 17131255892312039915
21033650 10 18046089085349049940
21065201 7 18341891827797866298
21267235 1 18335986445693298475
21728266 224 18188759570664201938
2297311 6 18412833473088575574
23175994 123 17346881152422268889
23366157 5 17897725602754440013
23402539 116 18408315575399129671
23557571 272 18272649000812649592
23559900 14 18413386519095611444
3004659 81 18040430018584867655
314173 85 18272092703678835857
335352 9 18409726267052334141
465052 167 18266466588748397503
474 4 17023763350005520324
5104073 3 18341336712149552321
573450 72 18187920621695786632
602551 16 18412824668690624378
67856867 119 18187367683775908276
7364860 26 18126285491440728585
7495541 125 18202279217511116160
77492 1 17531530876096207384
7970288 3 18337387253029349179
9709674 26 18199470952612142918

>  <PUBCHEM_SHAPE_MULTIPOLES>
396.95
10.64
2.28
1.08
3.76
1.07
-0.1
-6.17
-0.53
-2.96
-0.07
1.72
-0.2
0.22

>  <PUBCHEM_SHAPE_SELFOVERLAP>
888.737

>  <PUBCHEM_SHAPE_VOLUME>
209.3

>  <RI>
-9.61187e+08

>  <Rbt.Current_Directory>
/root/miniconda3/envs/rdock/share/rxdock-2013.1.1_148c5bd1-0/data/ligands/prepped_ligands/Fisetin

>  <Rbt.Executable>
rbdock/0.1.0

>  <Rbt.Library>
librxdock.so/0.1.0

>  <Rbt.Parameter_File>
/root/miniconda3/envs/rdock/share/rxdock-2013.1.1_148c5bd1-0/data/scripts/dock.prm

>  <Rbt.Receptor>
def.prm

>  <SCORE>
-24.0069

>  <SCORE.INTER>
-24.9795

>  <SCORE.INTER.CONST>
1

>  <SCORE.INTER.POLAR>
-3.46658

>  <SCORE.INTER.REPUL>
0

>  <SCORE.INTER.ROT>
1

>  <SCORE.INTER.VDW>
-19.5931

>  <SCORE.INTER.norm>
-1.1895

>  <SCORE.INTRA>
2.00781

>  <SCORE.INTRA.DIHEDRAL>
7.17269

>  <SCORE.INTRA.DIHEDRAL.0>
6.17317

>  <SCORE.INTRA.POLAR>
-0.0058487

>  <SCORE.INTRA.POLAR.0>
0

>  <SCORE.INTRA.REPUL>
0

>  <SCORE.INTRA.REPUL.0>
0

>  <SCORE.INTRA.VDW>
-1.55864

>  <SCORE.INTRA.VDW.0>
0.491979

>  <SCORE.INTRA.norm>
0.0956102

>  <SCORE.RESTR>
0

>  <SCORE.RESTR.CAVITY>
0

>  <SCORE.RESTR.norm>
0

>  <SCORE.SYSTEM>
-1.03528

>  <SCORE.SYSTEM.CONST>
0

>  <SCORE.SYSTEM.DIHEDRAL>
0.102425

>  <SCORE.SYSTEM.VDW>
-1.08649

>  <SCORE.SYSTEM.norm>
-0.049299

>  <SCORE.heavy>
21

>  <SCORE.norm>
-1.14319

$$$$
5281614
  RxDock  02242109463D
librxdock.so/0.1.0
 25 27  0  0  0  0  0  0  0  0999 V2000
  -51.9330   -3.0987   15.1158 O   0  0  0  0  0  0
  -51.4483   -4.1520   18.6148 O   0  0  0  0  0  0
  -49.7187   -1.9897   18.3518 O   0  0  0  0  0  0
  -50.0392    0.3332   12.4384 O   0  0  0  0  0  0
  -56.5910   -5.4137   15.8106 O   0  0  0  0  0  0
  -55.7117   -8.0236   16.1803 O   0  0  0  0  0  0
  -52.0432   -3.7605   16.3285 C   0  0  0  0  0  0
  -50.2829   -1.6110   16.0934 C   0  0  0  0  0  0
  -51.0657   -2.0409   15.0241 C   0  0  0  0  0  0
  -53.0068   -4.8749   16.2896 C   0  0  0  0  0  0
  -51.3390   -3.4520   17.4328 C   0  0  0  0  0  0
  -50.3852   -2.3179   17.3793 C   0  0  0  0  0  0
  -49.4149   -0.5269   15.9414 C   0  0  0  0  0  0
  -50.9851   -1.3885   13.7936 C   0  0  0  0  0  0
  -54.3600   -4.6201   16.0658 C   0  0  0  0  0  0
  -52.5661   -6.1853   16.4766 C   0  0  0  0  0  0
  -50.1198   -0.3055   13.6379 C   0  0  0  0  0  0
  -49.3364    0.1243   14.7098 C   0  0  0  0  0  0
  -55.2721   -5.6748   16.0286 C   0  0  0  0  0  0
  -53.4781   -7.2400   16.4398 C   0  0  0  0  0  0
  -54.8311   -6.9849   16.2157 C   0  0  0  0  0  0
  -50.8433   -3.7791   19.2760 H   0  0  0  0  0  0
  -50.8156    0.0960   11.9024 H   0  0  0  0  0  0
  -56.6969   -4.4993   15.5022 H   0  0  0  0  0  0
  -56.6205   -7.6825   16.1911 H   0  0  0  0  0  0
  1  7  1  0  0  0
  1  9  1  0  0  0
  2 11  1  0  0  0
  2 22  1  0  0  0
  3 12  2  0  0  0
  4 17  1  0  0  0
  4 23  1  0  0  0
  5 19  1  0  0  0
  5 24  1  0  0  0
  6 21  1  0  0  0
  6 25  1  0  0  0
  7 10  1  0  0  0
  7 11  2  0  0  0
  8  9  2  0  0  0
  8 12  1  0  0  0
  8 13  1  0  0  0
  9 14  1  0  0  0
 10 15  2  0  0  0
 10 16  1  0  0  0
 11 12  1  0  0  0
 13 18  2  0  0  0
 14 17  2  0  0  0
 15 19  1  0  0  0
 16 20  2  0  0  0
 17 18  1  0  0  0
 19 21  2  0  0  0
 20 21  1  0  0  0
M  END
>  <CHROM.0>
-61.81140084,176.61786735,-164.70930395

>  <CHROM.1>
178.82197024,16.83649124,13.01031149,-11.06890222,-64.31121645,-52.14689270
-3.50875306,15.92564727,0.59907516,-0.69106673,-0.99441576

>  <Name>
5281614

>  <PUBCHEM_ATOM_DEF_STEREO_COUNT>
0

>  <PUBCHEM_ATOM_UDEF_STEREO_COUNT>
0

>  <PUBCHEM_BOND_DEF_STEREO_COUNT>
0

>  <PUBCHEM_BOND_UDEF_STEREO_COUNT>
0

>  <PUBCHEM_CACTVS_TAUTO_COUNT>
211

>  <PUBCHEM_COMPONENT_COUNT>
1

>  <PUBCHEM_COMPOUND_CID>
5281614

>  <PUBCHEM_CONFORMER_DIVERSEORDER>
1
3
2
4

>  <PUBCHEM_CONFORMER_ID>
0050974E00000001

>  <PUBCHEM_CONFORMER_RMSD>
0.6

>  <PUBCHEM_COORDINATE_TYPE>
2
5
10

>  <PUBCHEM_EFFECTIVE_ROTOR_COUNT>
1

>  <PUBCHEM_FEATURE_SELFOVERLAP>
45.705

>  <PUBCHEM_HEAVY_ATOM_COUNT>
21

>  <PUBCHEM_ISOTOPIC_ATOM_COUNT>
0

>  <PUBCHEM_MMFF94_ENERGY>
63.3231

>  <PUBCHEM_MMFF94_PARTIAL_CHARGES>
31
1 -0.16
10 0.03
11 0.09
12 0.47
13 -0.15
14 -0.15
15 -0.15
16 -0.15
17 0.08
18 -0.15
19 0.08
2 -0.53
20 -0.15
21 0.08
22 0.15
23 0.15
24 0.15
25 0.15
26 0.15
27 0.15
28 0.45
29 0.45
3 -0.57
30 0.45
31 0.45
4 -0.53
5 -0.53
6 -0.53
7 0.05
8 0.09
9 0.08

>  <PUBCHEM_PHARMACOPHORE_FEATURES>
9
1 1 acceptor
1 2 donor
1 3 acceptor
1 4 donor
1 5 donor
1 6 donor
6 1 7 8 9 11 12 rings
6 10 15 16 19 20 21 rings
6 8 9 13 14 17 18 rings

>  <PUBCHEM_SHAPE_FINGERPRINT>
10319926 262 18197191691463025650
11046707 91 18409165524084290187
11370993 144 16916795041429104491
11543360 7 15574712534293567507
11552529 35 14619643787438718685
11796584 16 18053666872396607318
12236239 1 17676205732828356282
12363563 72 18338520845390468915
12553582 1 18335422383079402043
12788726 201 18187641337300532121
13140716 1 18339079393340139273
13288520 33 18410009940308579395
13862211 1 18410289242354007383
14386348 63 17917992754818192534
14790565 3 17763186834971878929
15196674 1 18337951294098693961
15961568 22 18336260267091762604
16752209 62 18261386724325207555
16945 1 18409726227938926049
17138139 8 17532082985083390723
17349148 13 17385719171601143218
17492 89 17907293605117387543
17804303 29 18412823599249003441
1813 80 18412549841927571013
18222031 100 18270677688170113671
19141452 34 17775002427494233167
193927 3 18341338906756936155
19862831 5 17530686498194398818
200 152 16588022381663776488
20028762 73 18057885956073817583
20374829 77 18410572903236631871
20871999 31 18337117786637799036
21033648 29 17131255892312039915
21033650 10 18046089085349049940
21065201 7 18341891827797866298
21267235 1 18335986445693298475
21728266 224 18188759570664201938
2297311 6 18412833473088575574
23175994 123 17346881152422268889
23366157 5 17897725602754440013
23402539 116 18408315575399129671
23557571 272 18272649000812649592
23559900 14 18413386519095611444
3004659 81 18040430018584867655
314173 85 18272092703678835857
335352 9 18409726267052334141
465052 167 18266466588748397503
474 4 17023763350005520324
5104073 3 18341336712149552321
573450 72 18187920621695786632
602551 16 18412824668690624378
67856867 119 18187367683775908276
7364860 26 18126285491440728585
7495541 125 18202279217511116160
77492 1 17531530876096207384
7970288 3 18337387253029349179
9709674 26 18199470952612142918

>  <PUBCHEM_SHAPE_MULTIPOLES>
396.95
10.64
2.28
1.08
3.76
1.07
-0.1
-6.17
-0.53
-2.96
-0.07
1.72
-0.2
0.22

>  <PUBCHEM_SHAPE_SELFOVERLAP>
888.737

>  <PUBCHEM_SHAPE_VOLUME>
209.3

>  <RI>
-9.61187e+08

>  <Rbt.Current_Directory>
/root/miniconda3/envs/rdock/share/rxdock-2013.1.1_148c5bd1-0/data/ligands/prepped_ligands/Fisetin

>  <Rbt.Executable>
rbdock/0.1.0

>  <Rbt.Library>
librxdock.so/0.1.0

>  <Rbt.Parameter_File>
/root/miniconda3/envs/rdock/share/rxdock-2013.1.1_148c5bd1-0/data/scripts/dock.prm

>  <Rbt.Receptor>
def.prm

>  <SCORE>
-17.424

>  <SCORE.INTER>
-15.032

>  <SCORE.INTER.CONST>
1

>  <SCORE.INTER.POLAR>
-1.36983

>  <SCORE.INTER.REPUL>
0.0806649

>  <SCORE.INTER.ROT>
1

>  <SCORE.INTER.VDW>
-17.1779

>  <SCORE.INTER.norm>
-0.715808

>  <SCORE.INTRA>
-1.65896

>  <SCORE.INTRA.DIHEDRAL>
-1.489

>  <SCORE.INTRA.DIHEDRAL.0>
6.17317

>  <SCORE.INTRA.POLAR>
-0.105328

>  <SCORE.INTRA.POLAR.0>
0

>  <SCORE.INTRA.REPUL>
0

>  <SCORE.INTRA.REPUL.0>
0

>  <SCORE.INTRA.VDW>
-0.556345

>  <SCORE.INTRA.VDW.0>
0.491979

>  <SCORE.INTRA.norm>
-0.0789982

>  <SCORE.RESTR>
0

>  <SCORE.RESTR.CAVITY>
0

>  <SCORE.RESTR.norm>
0

>  <SCORE.SYSTEM>
-0.733045

>  <SCORE.SYSTEM.CONST>
0

>  <SCORE.SYSTEM.DIHEDRAL>
0.601441

>  <SCORE.SYSTEM.POLAR>
-0.0199447

>  <SCORE.SYSTEM.VDW>
-0.965954

>  <SCORE.SYSTEM.norm>
-0.0349069

>  <SCORE.heavy>
21

>  <SCORE.norm>
-0.829713

$$$$
5281614
  RxDock  02242109473D
librxdock.so/0.1.0
 25 27  0  0  0  0  0  0  0  0999 V2000
  -51.8402   -3.7593   15.1740 O   0  0  0  0  0  0
  -48.4673   -5.0450   15.9216 O   0  0  0  0  0  0
  -50.1424   -7.0527   16.8699 O   0  0  0  0  0  0
  -56.2194   -5.4386   15.9049 O   0  0  0  0  0  0
  -50.4378    0.5113   13.2053 O   0  0  0  0  0  0
  -47.6595    0.4979   13.1517 O   0  0  0  0  0  0
  -50.4642   -3.8979   15.2647 C   0  0  0  0  0  0
  -52.1145   -5.9197   16.2460 C   0  0  0  0  0  0
  -52.6326   -4.7681   15.6576 C   0  0  0  0  0  0
  -49.7325   -2.7451   14.7101 C   0  0  0  0  0  0
  -49.8384   -4.9533   15.8172 C   0  0  0  0  0  0
  -50.6552   -6.0666   16.3577 C   0  0  0  0  0  0
  -52.9711   -6.9152   16.7226 C   0  0  0  0  0  0
  -54.0132   -4.6041   15.5420 C   0  0  0  0  0  0
  -50.4342   -1.6465   14.2133 C   0  0  0  0  0  0
  -48.3377   -2.7520   14.6816 C   0  0  0  0  0  0
  -54.8718   -5.5959   16.0165 C   0  0  0  0  0  0
  -54.3515   -6.7491   16.6054 C   0  0  0  0  0  0
  -49.7418   -0.5551   13.6887 C   0  0  0  0  0  0
  -47.6453   -1.6608   14.1566 C   0  0  0  0  0  0
  -48.3473   -0.5624   13.6603 C   0  0  0  0  0  0
  -48.2268   -5.8488   16.4098 H   0  0  0  0  0  0
  -56.4010   -4.6524   15.3616 H   0  0  0  0  0  0
  -49.8196    1.2017   12.9161 H   0  0  0  0  0  0
  -46.8220    0.1911   12.7684 H   0  0  0  0  0  0
  1  7  1  0  0  0
  1  9  1  0  0  0
  2 11  1  0  0  0
  2 22  1  0  0  0
  3 12  2  0  0  0
  4 17  1  0  0  0
  4 23  1  0  0  0
  5 19  1  0  0  0
  5 24  1  0  0  0
  6 21  1  0  0  0
  6 25  1  0  0  0
  7 10  1  0  0  0
  7 11  2  0  0  0
  8  9  2  0  0  0
  8 12  1  0  0  0
  8 13  1  0  0  0
  9 14  1  0  0  0
 10 15  2  0  0  0
 10 16  1  0  0  0
 11 12  1  0  0  0
 13 18  2  0  0  0
 14 17  2  0  0  0
 15 19  1  0  0  0
 16 20  2  0  0  0
 17 18  1  0  0  0
 19 21  2  0  0  0
 20 21  1  0  0  0
M  END
>  <CHROM.0>
-60.81643102,-62.29321763,-171.70131757

>  <CHROM.1>
175.64236704,8.15962879,177.36048042,-149.82190173,2.33509487,-50.97591593
-3.74379810,15.19264017,2.27233520,0.01616633,2.68480342

>  <Name>
5281614

>  <PUBCHEM_ATOM_DEF_STEREO_COUNT>
0

>  <PUBCHEM_ATOM_UDEF_STEREO_COUNT>
0

>  <PUBCHEM_BOND_DEF_STEREO_COUNT>
0

>  <PUBCHEM_BOND_UDEF_STEREO_COUNT>
0

>  <PUBCHEM_CACTVS_TAUTO_COUNT>
211

>  <PUBCHEM_COMPONENT_COUNT>
1

>  <PUBCHEM_COMPOUND_CID>
5281614

>  <PUBCHEM_CONFORMER_DIVERSEORDER>
1
3
2
4

>  <PUBCHEM_CONFORMER_ID>
0050974E00000001

>  <PUBCHEM_CONFORMER_RMSD>
0.6

>  <PUBCHEM_COORDINATE_TYPE>
2
5
10

>  <PUBCHEM_EFFECTIVE_ROTOR_COUNT>
1

>  <PUBCHEM_FEATURE_SELFOVERLAP>
45.705

>  <PUBCHEM_HEAVY_ATOM_COUNT>
21

>  <PUBCHEM_ISOTOPIC_ATOM_COUNT>
0

>  <PUBCHEM_MMFF94_ENERGY>
63.3231

>  <PUBCHEM_MMFF94_PARTIAL_CHARGES>
31
1 -0.16
10 0.03
11 0.09
12 0.47
13 -0.15
14 -0.15
15 -0.15
16 -0.15
17 0.08
18 -0.15
19 0.08
2 -0.53
20 -0.15
21 0.08
22 0.15
23 0.15
24 0.15
25 0.15
26 0.15
27 0.15
28 0.45
29 0.45
3 -0.57
30 0.45
31 0.45
4 -0.53
5 -0.53
6 -0.53
7 0.05
8 0.09
9 0.08

>  <PUBCHEM_PHARMACOPHORE_FEATURES>
9
1 1 acceptor
1 2 donor
1 3 acceptor
1 4 donor
1 5 donor
1 6 donor
6 1 7 8 9 11 12 rings
6 10 15 16 19 20 21 rings
6 8 9 13 14 17 18 rings

>  <PUBCHEM_SHAPE_FINGERPRINT>
10319926 262 18197191691463025650
11046707 91 18409165524084290187
11370993 144 16916795041429104491
11543360 7 15574712534293567507
11552529 35 14619643787438718685
11796584 16 18053666872396607318
12236239 1 17676205732828356282
12363563 72 18338520845390468915
12553582 1 18335422383079402043
12788726 201 18187641337300532121
13140716 1 18339079393340139273
13288520 33 18410009940308579395
13862211 1 18410289242354007383
14386348 63 17917992754818192534
14790565 3 17763186834971878929
15196674 1 18337951294098693961
15961568 22 18336260267091762604
16752209 62 18261386724325207555
16945 1 18409726227938926049
17138139 8 17532082985083390723
17349148 13 17385719171601143218
17492 89 17907293605117387543
17804303 29 18412823599249003441
1813 80 18412549841927571013
18222031 100 18270677688170113671
19141452 34 17775002427494233167
193927 3 18341338906756936155
19862831 5 17530686498194398818
200 152 16588022381663776488
20028762 73 18057885956073817583
20374829 77 18410572903236631871
20871999 31 18337117786637799036
21033648 29 17131255892312039915
21033650 10 18046089085349049940
21065201 7 18341891827797866298
21267235 1 18335986445693298475
21728266 224 18188759570664201938
2297311 6 18412833473088575574
23175994 123 17346881152422268889
23366157 5 17897725602754440013
23402539 116 18408315575399129671
23557571 272 18272649000812649592
23559900 14 18413386519095611444
3004659 81 18040430018584867655
314173 85 18272092703678835857
335352 9 18409726267052334141
465052 167 18266466588748397503
474 4 17023763350005520324
5104073 3 18341336712149552321
573450 72 18187920621695786632
602551 16 18412824668690624378
67856867 119 18187367683775908276
7364860 26 18126285491440728585
7495541 125 18202279217511116160
77492 1 17531530876096207384
7970288 3 18337387253029349179
9709674 26 18199470952612142918

>  <PUBCHEM_SHAPE_MULTIPOLES>
396.95
10.64
2.28
1.08
3.76
1.07
-0.1
-6.17
-0.53
-2.96
-0.07
1.72
-0.2
0.22

>  <PUBCHEM_SHAPE_SELFOVERLAP>
888.737

>  <PUBCHEM_SHAPE_VOLUME>
209.3

>  <RI>
-9.61187e+08

>  <Rbt.Current_Directory>
/root/miniconda3/envs/rdock/share/rxdock-2013.1.1_148c5bd1-0/data/ligands/prepped_ligands/Fisetin

>  <Rbt.Executable>
rbdock/0.1.0

>  <Rbt.Library>
librxdock.so/0.1.0

>  <Rbt.Parameter_File>
/root/miniconda3/envs/rdock/share/rxdock-2013.1.1_148c5bd1-0/data/scripts/dock.prm

>  <Rbt.Receptor>
def.prm

>  <SCORE>
-25.0837

>  <SCORE.INTER>
-22.7182

>  <SCORE.INTER.CONST>
1

>  <SCORE.INTER.POLAR>
-3.15628

>  <SCORE.INTER.REPUL>
0.0807369

>  <SCORE.INTER.ROT>
1

>  <SCORE.INTER.VDW>
-18.7905

>  <SCORE.INTER.norm>
-1.08182

>  <SCORE.INTRA>
-1.36141

>  <SCORE.INTRA.DIHEDRAL>
-4.81497

>  <SCORE.INTRA.DIHEDRAL.0>
6.17317

>  <SCORE.INTRA.POLAR>
-0.113684

>  <SCORE.INTRA.POLAR.0>
0

>  <SCORE.INTRA.REPUL>
0

>  <SCORE.INTRA.REPUL.0>
0

>  <SCORE.INTRA.VDW>
1.43261

>  <SCORE.INTRA.VDW.0>
0.491979

>  <SCORE.INTRA.norm>
-0.0648288

>  <SCORE.RESTR>
0

>  <SCORE.RESTR.CAVITY>
0

>  <SCORE.RESTR.norm>
0

>  <SCORE.SYSTEM>
-1.00414

>  <SCORE.SYSTEM.CONST>
0

>  <SCORE.SYSTEM.DIHEDRAL>
0.18907

>  <SCORE.SYSTEM.POLAR>
-0.0164882

>  <SCORE.SYSTEM.VDW>
-1.04262

>  <SCORE.SYSTEM.norm>
-0.0478163

>  <SCORE.heavy>
21

>  <SCORE.norm>
-1.19446

$$$$
5281614
  RxDock  02242109473D
librxdock.so/0.1.0
 25 27  0  0  0  0  0  0  0  0999 V2000
  -53.6389   -4.8531   15.7545 O   0  0  0  0  0  0
  -51.1500   -5.6248   18.3618 O   0  0  0  0  0  0
  -52.3412   -8.0885   17.8646 O   0  0  0  0  0  0
  -56.8320   -7.4620   13.4030 O   0  0  0  0  0  0
  -50.2317   -0.9235   14.8488 O   0  0  0  0  0  0
  -50.6493    0.4985   17.1994 O   0  0  0  0  0  0
  -52.6173   -4.7471   16.6851 C   0  0  0  0  0  0
  -53.8048   -7.2280   16.2278 C   0  0  0  0  0  0
  -54.2046   -6.0835   15.5413 C   0  0  0  0  0  0
  -52.1000   -3.3734   16.8168 C   0  0  0  0  0  0
  -52.1455   -5.7707   17.4200 C   0  0  0  0  0  0
  -52.7304   -7.1195   17.2266 C   0  0  0  0  0  0
  -54.4186   -8.4562   15.9697 C   0  0  0  0  0  0
  -55.2229   -6.1599   14.5908 C   0  0  0  0  0  0
  -51.4020   -2.7862   15.7612 C   0  0  0  0  0  0
  -52.3082   -2.6596   17.9972 C   0  0  0  0  0  0
  -55.8382   -7.3844   14.3301 C   0  0  0  0  0  0
  -55.4366   -8.5301   15.0182 C   0  0  0  0  0  0
  -50.9128   -1.4858   15.8856 C   0  0  0  0  0  0
  -51.8186   -1.3594   18.1218 C   0  0  0  0  0  0
  -51.1210   -0.7725   17.0661 C   0  0  0  0  0  0
  -50.9374   -6.4872   18.7532 H   0  0  0  0  0  0
  -57.1125   -8.3896   13.3186 H   0  0  0  0  0  0
  -50.1274    0.0291   15.0041 H   0  0  0  0  0  0
  -49.7080    0.5245   16.9635 H   0  0  0  0  0  0
  1  7  1  0  0  0
  1  9  1  0  0  0
  2 11  1  0  0  0
  2 22  1  0  0  0
  3 12  2  0  0  0
  4 17  1  0  0  0
  4 23  1  0  0  0
  5 19  1  0  0  0
  5 24  1  0  0  0
  6 21  1  0  0  0
  6 25  1  0  0  0
  7 10  1  0  0  0
  7 11  2  0  0  0
  8  9  2  0  0  0
  8 12  1  0  0  0
  8 13  1  0  0  0
  9 14  1  0  0  0
 10 15  2  0  0  0
 10 16  1  0  0  0
 11 12  1  0  0  0
 13 18  2  0  0  0
 14 17  2  0  0  0
 15 19  1  0  0  0
 16 20  2  0  0  0
 17 18  1  0  0  0
 19 21  2  0  0  0
 20 21  1  0  0  0
M  END
>  <CHROM.0>
59.95449004,61.92416151,-56.62648196

>  <CHROM.1>
-177.99492363,177.17814443,167.72971905,-51.21167848,-67.72364877,-52.86360924
-4.73612751,16.28077978,2.41847504,0.81564758,2.68108462

>  <Name>
5281614

>  <PUBCHEM_ATOM_DEF_STEREO_COUNT>
0

>  <PUBCHEM_ATOM_UDEF_STEREO_COUNT>
0

>  <PUBCHEM_BOND_DEF_STEREO_COUNT>
0

>  <PUBCHEM_BOND_UDEF_STEREO_COUNT>
0

>  <PUBCHEM_CACTVS_TAUTO_COUNT>
211

>  <PUBCHEM_COMPONENT_COUNT>
1

>  <PUBCHEM_COMPOUND_CID>
5281614

>  <PUBCHEM_CONFORMER_DIVERSEORDER>
1
3
2
4

>  <PUBCHEM_CONFORMER_ID>
0050974E00000001

>  <PUBCHEM_CONFORMER_RMSD>
0.6

>  <PUBCHEM_COORDINATE_TYPE>
2
5
10

>  <PUBCHEM_EFFECTIVE_ROTOR_COUNT>
1

>  <PUBCHEM_FEATURE_SELFOVERLAP>
45.705

>  <PUBCHEM_HEAVY_ATOM_COUNT>
21

>  <PUBCHEM_ISOTOPIC_ATOM_COUNT>
0

>  <PUBCHEM_MMFF94_ENERGY>
63.3231

>  <PUBCHEM_MMFF94_PARTIAL_CHARGES>
31
1 -0.16
10 0.03
11 0.09
12 0.47
13 -0.15
14 -0.15
15 -0.15
16 -0.15
17 0.08
18 -0.15
19 0.08
2 -0.53
20 -0.15
21 0.08
22 0.15
23 0.15
24 0.15
25 0.15
26 0.15
27 0.15
28 0.45
29 0.45
3 -0.57
30 0.45
31 0.45
4 -0.53
5 -0.53
6 -0.53
7 0.05
8 0.09
9 0.08

>  <PUBCHEM_PHARMACOPHORE_FEATURES>
9
1 1 acceptor
1 2 donor
1 3 acceptor
1 4 donor
1 5 donor
1 6 donor
6 1 7 8 9 11 12 rings
6 10 15 16 19 20 21 rings
6 8 9 13 14 17 18 rings

>  <PUBCHEM_SHAPE_FINGERPRINT>
10319926 262 18197191691463025650
11046707 91 18409165524084290187
11370993 144 16916795041429104491
11543360 7 15574712534293567507
11552529 35 14619643787438718685
11796584 16 18053666872396607318
12236239 1 17676205732828356282
12363563 72 18338520845390468915
12553582 1 18335422383079402043
12788726 201 18187641337300532121
13140716 1 18339079393340139273
13288520 33 18410009940308579395
13862211 1 18410289242354007383
14386348 63 17917992754818192534
14790565 3 17763186834971878929
15196674 1 18337951294098693961
15961568 22 18336260267091762604
16752209 62 18261386724325207555
16945 1 18409726227938926049
17138139 8 17532082985083390723
17349148 13 17385719171601143218
17492 89 17907293605117387543
17804303 29 18412823599249003441
1813 80 18412549841927571013
18222031 100 18270677688170113671
19141452 34 17775002427494233167
193927 3 18341338906756936155
19862831 5 17530686498194398818
200 152 16588022381663776488
20028762 73 18057885956073817583
20374829 77 18410572903236631871
20871999 31 18337117786637799036
21033648 29 17131255892312039915
21033650 10 18046089085349049940
21065201 7 18341891827797866298
21267235 1 18335986445693298475
21728266 224 18188759570664201938
2297311 6 18412833473088575574
23175994 123 17346881152422268889
23366157 5 17897725602754440013
23402539 116 18408315575399129671
23557571 272 18272649000812649592
23559900 14 18413386519095611444
3004659 81 18040430018584867655
314173 85 18272092703678835857
335352 9 18409726267052334141
465052 167 18266466588748397503
474 4 17023763350005520324
5104073 3 18341336712149552321
573450 72 18187920621695786632
602551 16 18412824668690624378
67856867 119 18187367683775908276
7364860 26 18126285491440728585
7495541 125 18202279217511116160
77492 1 17531530876096207384
7970288 3 18337387253029349179
9709674 26 18199470952612142918

>  <PUBCHEM_SHAPE_MULTIPOLES>
396.95
10.64
2.28
1.08
3.76
1.07
-0.1
-6.17
-0.53
-2.96
-0.07
1.72
-0.2
0.22

>  <PUBCHEM_SHAPE_SELFOVERLAP>
888.737

>  <PUBCHEM_SHAPE_VOLUME>
209.3

>  <RI>
-9.61187e+08

>  <Rbt.Current_Directory>
/root/miniconda3/envs/rdock/share/rxdock-2013.1.1_148c5bd1-0/data/ligands/prepped_ligands/Fisetin

>  <Rbt.Executable>
rbdock/0.1.0

>  <Rbt.Library>
librxdock.so/0.1.0

>  <Rbt.Parameter_File>
/root/miniconda3/envs/rdock/share/rxdock-2013.1.1_148c5bd1-0/data/scripts/dock.prm

>  <Rbt.Receptor>
def.prm

>  <SCORE>
-16.536

>  <SCORE.INTER>
-15.1473

>  <SCORE.INTER.CONST>
1

>  <SCORE.INTER.POLAR>
-0.69282

>  <SCORE.INTER.REPUL>
0.00594194

>  <SCORE.INTER.ROT>
1

>  <SCORE.INTER.VDW>
-19.2214

>  <SCORE.INTER.norm>
-0.721299

>  <SCORE.INTRA>
-0.407946

>  <SCORE.INTRA.DIHEDRAL>
1.05761

>  <SCORE.INTRA.DIHEDRAL.0>
6.17317

>  <SCORE.INTRA.POLAR>
0

>  <SCORE.INTRA.POLAR.0>
0

>  <SCORE.INTRA.REPUL>
0

>  <SCORE.INTRA.REPUL.0>
0

>  <SCORE.INTRA.VDW>
-0.936752

>  <SCORE.INTRA.VDW.0>
0.491979

>  <SCORE.INTRA.norm>
-0.019426

>  <SCORE.RESTR>
0

>  <SCORE.RESTR.CAVITY>
0

>  <SCORE.RESTR.norm>
0

>  <SCORE.SYSTEM>
-0.980761

>  <SCORE.SYSTEM.CONST>
0

>  <SCORE.SYSTEM.DIHEDRAL>
0.0437637

>  <SCORE.SYSTEM.POLAR>
-0.00847813

>  <SCORE.SYSTEM.VDW>
-0.973817

>  <SCORE.SYSTEM.norm>
-0.0467029

>  <SCORE.heavy>
21

>  <SCORE.norm>
-0.787428

$$$$
5281614
  RxDock  02242109473D
librxdock.so/0.1.0
 25 27  0  0  0  0  0  0  0  0999 V2000
  -47.7580   -0.7948   14.7161 O   0  0  0  0  0  0
  -50.8490   -1.6904   12.9185 O   0  0  0  0  0  0
  -50.3982   -3.8944   14.5541 O   0  0  0  0  0  0
  -45.1073   -3.0083   17.9728 O   0  0  0  0  0  0
  -51.0875    3.4379   12.8103 O   0  0  0  0  0  0
  -49.1788    3.9786   10.8644 O   0  0  0  0  0  0
  -48.8675   -0.7569   13.8864 C   0  0  0  0  0  0
  -48.4338   -2.9917   15.4963 C   0  0  0  0  0  0
  -47.5673   -1.9007   15.5035 C   0  0  0  0  0  0
  -48.9522    0.4841   13.0962 C   0  0  0  0  0  0
  -49.7737   -1.7457   13.7787 C   0  0  0  0  0  0
  -49.6057   -2.9635   14.6078 C   0  0  0  0  0  0
  -48.1883   -4.0931   16.3201 C   0  0  0  0  0  0
  -46.4475   -1.9044   16.3356 C   0  0  0  0  0  0
  -49.9895    1.3883   13.3257 C   0  0  0  0  0  0
  -47.9951    0.7553   12.1181 C   0  0  0  0  0  0
  -46.1991   -3.0021   17.1597 C   0  0  0  0  0  0
  -47.0679   -4.0941   17.1518 C   0  0  0  0  0  0
  -50.0695    2.5633   12.5781 C   0  0  0  0  0  0
  -48.0752    1.9301   11.3702 C   0  0  0  0  0  0
  -49.1124    2.8340   11.6003 C   0  0  0  0  0  0
  -51.4981   -2.3713   13.1578 H   0  0  0  0  0  0
  -44.4666   -2.3538   17.6451 H   0  0  0  0  0  0
  -51.6165    3.5460   12.0035 H   0  0  0  0  0  0
  -49.9867    4.4668   11.0912 H   0  0  0  0  0  0
  1  7  1  0  0  0
  1  9  1  0  0  0
  2 11  1  0  0  0
  2 22  1  0  0  0
  3 12  2  0  0  0
  4 17  1  0  0  0
  4 23  1  0  0  0
  5 19  1  0  0  0
  5 24  1  0  0  0
  6 21  1  0  0  0
  6 25  1  0  0  0
  7 10  1  0  0  0
  7 11  2  0  0  0
  8  9  2  0  0  0
  8 12  1  0  0  0
  8 13  1  0  0  0
  9 14  1  0  0  0
 10 15  2  0  0  0
 10 16  1  0  0  0
 11 12  1  0  0  0
 13 18  2  0  0  0
 14 17  2  0  0  0
 15 19  1  0  0  0
 16 20  2  0  0  0
 17 18  1  0  0  0
 19 21  2  0  0  0
 20 21  1  0  0  0
M  END
>  <CHROM.0>
57.20616858,-61.20166947,-58.85307648

>  <CHROM.1>
-164.85436497,-19.45480368,-119.57252092,-4.40957152,-113.60704946,-48.64155698
-0.68615687,14.17430099,-1.21219924,-0.48974460,-0.48737249

>  <Name>
5281614

>  <PUBCHEM_ATOM_DEF_STEREO_COUNT>
0

>  <PUBCHEM_ATOM_UDEF_STEREO_COUNT>
0

>  <PUBCHEM_BOND_DEF_STEREO_COUNT>
0

>  <PUBCHEM_BOND_UDEF_STEREO_COUNT>
0

>  <PUBCHEM_CACTVS_TAUTO_COUNT>
211

>  <PUBCHEM_COMPONENT_COUNT>
1

>  <PUBCHEM_COMPOUND_CID>
5281614

>  <PUBCHEM_CONFORMER_DIVERSEORDER>
1
3
2
4

>  <PUBCHEM_CONFORMER_ID>
0050974E00000001

>  <PUBCHEM_CONFORMER_RMSD>
0.6

>  <PUBCHEM_COORDINATE_TYPE>
2
5
10

>  <PUBCHEM_EFFECTIVE_ROTOR_COUNT>
1

>  <PUBCHEM_FEATURE_SELFOVERLAP>
45.705

>  <PUBCHEM_HEAVY_ATOM_COUNT>
21

>  <PUBCHEM_ISOTOPIC_ATOM_COUNT>
0

>  <PUBCHEM_MMFF94_ENERGY>
63.3231

>  <PUBCHEM_MMFF94_PARTIAL_CHARGES>
31
1 -0.16
10 0.03
11 0.09
12 0.47
13 -0.15
14 -0.15
15 -0.15
16 -0.15
17 0.08
18 -0.15
19 0.08
2 -0.53
20 -0.15
21 0.08
22 0.15
23 0.15
24 0.15
25 0.15
26 0.15
27 0.15
28 0.45
29 0.45
3 -0.57
30 0.45
31 0.45
4 -0.53
5 -0.53
6 -0.53
7 0.05
8 0.09
9 0.08

>  <PUBCHEM_PHARMACOPHORE_FEATURES>
9
1 1 acceptor
1 2 donor
1 3 acceptor
1 4 donor
1 5 donor
1 6 donor
6 1 7 8 9 11 12 rings
6 10 15 16 19 20 21 rings
6 8 9 13 14 17 18 rings

>  <PUBCHEM_SHAPE_FINGERPRINT>
10319926 262 18197191691463025650
11046707 91 18409165524084290187
11370993 144 16916795041429104491
11543360 7 15574712534293567507
11552529 35 14619643787438718685
11796584 16 18053666872396607318
12236239 1 17676205732828356282
12363563 72 18338520845390468915
12553582 1 18335422383079402043
12788726 201 18187641337300532121
13140716 1 18339079393340139273
13288520 33 18410009940308579395
13862211 1 18410289242354007383
14386348 63 17917992754818192534
14790565 3 17763186834971878929
15196674 1 18337951294098693961
15961568 22 18336260267091762604
16752209 62 18261386724325207555
16945 1 18409726227938926049
17138139 8 17532082985083390723
17349148 13 17385719171601143218
17492 89 17907293605117387543
17804303 29 18412823599249003441
1813 80 18412549841927571013
18222031 100 18270677688170113671
19141452 34 17775002427494233167
193927 3 18341338906756936155
19862831 5 17530686498194398818
200 152 16588022381663776488
20028762 73 18057885956073817583
20374829 77 18410572903236631871
20871999 31 18337117786637799036
21033648 29 17131255892312039915
21033650 10 18046089085349049940
21065201 7 18341891827797866298
21267235 1 18335986445693298475
21728266 224 18188759570664201938
2297311 6 18412833473088575574
23175994 123 17346881152422268889
23366157 5 17897725602754440013
23402539 116 18408315575399129671
23557571 272 18272649000812649592
23559900 14 18413386519095611444
3004659 81 18040430018584867655
314173 85 18272092703678835857
335352 9 18409726267052334141
465052 167 18266466588748397503
474 4 17023763350005520324
5104073 3 18341336712149552321
573450 72 18187920621695786632
602551 16 18412824668690624378
67856867 119 18187367683775908276
7364860 26 18126285491440728585
7495541 125 18202279217511116160
77492 1 17531530876096207384
7970288 3 18337387253029349179
9709674 26 18199470952612142918

>  <PUBCHEM_SHAPE_MULTIPOLES>
396.95
10.64
2.28
1.08
3.76
1.07
-0.1
-6.17
-0.53
-2.96
-0.07
1.72
-0.2
0.22

>  <PUBCHEM_SHAPE_SELFOVERLAP>
888.737

>  <PUBCHEM_SHAPE_VOLUME>
209.3

>  <RI>
-9.61187e+08

>  <Rbt.Current_Directory>
/root/miniconda3/envs/rdock/share/rxdock-2013.1.1_148c5bd1-0/data/ligands/prepped_ligands/Fisetin

>  <Rbt.Executable>
rbdock/0.1.0

>  <Rbt.Library>
librxdock.so/0.1.0

>  <Rbt.Parameter_File>
/root/miniconda3/envs/rdock/share/rxdock-2013.1.1_148c5bd1-0/data/scripts/dock.prm

>  <Rbt.Receptor>
def.prm

>  <SCORE>
-18.4795

>  <SCORE.INTER>
-17.5875

>  <SCORE.INTER.CONST>
1

>  <SCORE.INTER.POLAR>
-1.30853

>  <SCORE.INTER.REPUL>
0

>  <SCORE.INTER.ROT>
1

>  <SCORE.INTER.VDW>
-19.5385

>  <SCORE.INTER.norm>
-0.837499

>  <SCORE.INTRA>
0.127468

>  <SCORE.INTRA.DIHEDRAL>
2.42231

>  <SCORE.INTRA.DIHEDRAL.0>
6.17317

>  <SCORE.INTRA.POLAR>
0

>  <SCORE.INTRA.POLAR.0>
0

>  <SCORE.INTRA.REPUL>
0

>  <SCORE.INTRA.REPUL.0>
0

>  <SCORE.INTRA.VDW>
-1.08369

>  <SCORE.INTRA.VDW.0>
0.491979

>  <SCORE.INTRA.norm>
0.0060699

>  <SCORE.RESTR>
0.0355658

>  <SCORE.RESTR.CAVITY>
0.0355658

>  <SCORE.RESTR.norm>
0.00169361

>  <SCORE.SYSTEM>
-1.05508

>  <SCORE.SYSTEM.CONST>
0

>  <SCORE.SYSTEM.DIHEDRAL>
0.030916

>  <SCORE.SYSTEM.POLAR>
-0.00363817

>  <SCORE.SYSTEM.VDW>
-1.05817

>  <SCORE.SYSTEM.norm>
-0.050242

>  <SCORE.heavy>
21

>  <SCORE.norm>
-0.879977

$$$$
5281614
  RxDock  02242109473D
librxdock.so/0.1.0
 25 27  0  0  0  0  0  0  0  0999 V2000
  -52.0881   -3.8737   14.8297 O   0  0  0  0  0  0
  -53.9320   -4.1205   18.0120 O   0  0  0  0  0  0
  -52.3827   -1.8348   18.3454 O   0  0  0  0  0  0
  -48.8691   -0.8216   13.1402 O   0  0  0  0  0  0
  -54.0602   -8.9500   16.6680 O   0  0  0  0  0  0
  -55.7999   -8.9493   14.5011 O   0  0  0  0  0  0
  -52.9488   -4.2860   15.8347 C   0  0  0  0  0  0
  -51.3935   -2.0027   16.2112 C   0  0  0  0  0  0
  -51.3370   -2.7451   15.0337 C   0  0  0  0  0  0
  -53.6937   -5.5093   15.4877 C   0  0  0  0  0  0
  -53.0906   -3.6652   17.0201 C   0  0  0  0  0  0
  -52.2948   -2.4428   17.2871 C   0  0  0  0  0  0
  -50.6034   -0.8606   16.3638 C   0  0  0  0  0  0
  -50.4883   -2.3497   13.9994 C   0  0  0  0  0  0
  -53.5269   -6.6673   16.2476 C   0  0  0  0  0  0
  -54.5661   -5.5099   14.3990 C   0  0  0  0  0  0
  -49.6980   -1.2099   14.1478 C   0  0  0  0  0  0
  -49.7557   -0.4669   15.3277 C   0  0  0  0  0  0
  -54.2323   -7.8251   15.9195 C   0  0  0  0  0  0
  -55.2712   -6.6678   14.0706 C   0  0  0  0  0  0
  -55.1044   -7.8254   14.8309 C   0  0  0  0  0  0
  -54.1577   -3.3924   18.6129 H   0  0  0  0  0  0
  -48.9726   -1.4355   12.3928 H   0  0  0  0  0  0
  -53.9772   -9.7216   16.0848 H   0  0  0  0  0  0
  -55.6514   -9.6347   15.1725 H   0  0  0  0  0  0
  1  7  1  0  0  0
  1  9  1  0  0  0
  2 11  1  0  0  0
  2 22  1  0  0  0
  3 12  2  0  0  0
  4 17  1  0  0  0
  4 23  1  0  0  0
  5 19  1  0  0  0
  5 24  1  0  0  0
  6 21  1  0  0  0
  6 25  1  0  0  0
  7 10  1  0  0  0
  7 11  2  0  0  0
  8  9  2  0  0  0
  8 12  1  0  0  0
  8 13  1  0  0  0
  9 14  1  0  0  0
 10 15  2  0  0  0
 10 16  1  0  0  0
 11 12  1  0  0  0
 13 18  2  0  0  0
 14 17  2  0  0  0
 15 19  1  0  0  0
 16 20  2  0  0  0
 17 18  1  0  0  0
 19 21  2  0  0  0
 20 21  1  0  0  0
M  END
>  <CHROM.0>
62.81292102,-65.62093958,-158.69437998

>  <CHROM.1>
-157.97200677,1.41346366,-136.23535672,5.92914901,117.85294739,-52.64727787
-4.27936020,15.61795251,-0.40414847,-0.90689430,-2.10841856

>  <Name>
5281614

>  <PUBCHEM_ATOM_DEF_STEREO_COUNT>
0

>  <PUBCHEM_ATOM_UDEF_STEREO_COUNT>
0

>  <PUBCHEM_BOND_DEF_STEREO_COUNT>
0

>  <PUBCHEM_BOND_UDEF_STEREO_COUNT>
0

>  <PUBCHEM_CACTVS_TAUTO_COUNT>
211

>  <PUBCHEM_COMPONENT_COUNT>
1

>  <PUBCHEM_COMPOUND_CID>
5281614

>  <PUBCHEM_CONFORMER_DIVERSEORDER>
1
3
2
4

>  <PUBCHEM_CONFORMER_ID>
0050974E00000001

>  <PUBCHEM_CONFORMER_RMSD>
0.6

>  <PUBCHEM_COORDINATE_TYPE>
2
5
10

>  <PUBCHEM_EFFECTIVE_ROTOR_COUNT>
1

>  <PUBCHEM_FEATURE_SELFOVERLAP>
45.705

>  <PUBCHEM_HEAVY_ATOM_COUNT>
21

>  <PUBCHEM_ISOTOPIC_ATOM_COUNT>
0

>  <PUBCHEM_MMFF94_ENERGY>
63.3231

>  <PUBCHEM_MMFF94_PARTIAL_CHARGES>
31
1 -0.16
10 0.03
11 0.09
12 0.47
13 -0.15
14 -0.15
15 -0.15
16 -0.15
17 0.08
18 -0.15
19 0.08
2 -0.53
20 -0.15
21 0.08
22 0.15
23 0.15
24 0.15
25 0.15
26 0.15
27 0.15
28 0.45
29 0.45
3 -0.57
30 0.45
31 0.45
4 -0.53
5 -0.53
6 -0.53
7 0.05
8 0.09
9 0.08

>  <PUBCHEM_PHARMACOPHORE_FEATURES>
9
1 1 acceptor
1 2 donor
1 3 acceptor
1 4 donor
1 5 donor
1 6 donor
6 1 7 8 9 11 12 rings
6 10 15 16 19 20 21 rings
6 8 9 13 14 17 18 rings

>  <PUBCHEM_SHAPE_FINGERPRINT>
10319926 262 18197191691463025650
11046707 91 18409165524084290187
11370993 144 16916795041429104491
11543360 7 15574712534293567507
11552529 35 14619643787438718685
11796584 16 18053666872396607318
12236239 1 17676205732828356282
12363563 72 18338520845390468915
12553582 1 18335422383079402043
12788726 201 18187641337300532121
13140716 1 18339079393340139273
13288520 33 18410009940308579395
13862211 1 18410289242354007383
14386348 63 17917992754818192534
14790565 3 17763186834971878929
15196674 1 18337951294098693961
15961568 22 18336260267091762604
16752209 62 18261386724325207555
16945 1 18409726227938926049
17138139 8 17532082985083390723
17349148 13 17385719171601143218
17492 89 17907293605117387543
17804303 29 18412823599249003441
1813 80 18412549841927571013
18222031 100 18270677688170113671
19141452 34 17775002427494233167
193927 3 18341338906756936155
19862831 5 17530686498194398818
200 152 16588022381663776488
20028762 73 18057885956073817583
20374829 77 18410572903236631871
20871999 31 18337117786637799036
21033648 29 17131255892312039915
21033650 10 18046089085349049940
21065201 7 18341891827797866298
21267235 1 18335986445693298475
21728266 224 18188759570664201938
2297311 6 18412833473088575574
23175994 123 17346881152422268889
23366157 5 17897725602754440013
23402539 116 18408315575399129671
23557571 272 18272649000812649592
23559900 14 18413386519095611444
3004659 81 18040430018584867655
314173 85 18272092703678835857
335352 9 18409726267052334141
465052 167 18266466588748397503
474 4 17023763350005520324
5104073 3 18341336712149552321
573450 72 18187920621695786632
602551 16 18412824668690624378
67856867 119 18187367683775908276
7364860 26 18126285491440728585
7495541 125 18202279217511116160
77492 1 17531530876096207384
7970288 3 18337387253029349179
9709674 26 18199470952612142918

>  <PUBCHEM_SHAPE_MULTIPOLES>
396.95
10.64
2.28
1.08
3.76
1.07
-0.1
-6.17
-0.53
-2.96
-0.07
1.72
-0.2
0.22

>  <PUBCHEM_SHAPE_SELFOVERLAP>
888.737

>  <PUBCHEM_SHAPE_VOLUME>
209.3

>  <RI>
-9.61187e+08

>  <Rbt.Current_Directory>
/root/miniconda3/envs/rdock/share/rxdock-2013.1.1_148c5bd1-0/data/ligands/prepped_ligands/Fisetin

>  <Rbt.Executable>
rbdock/0.1.0

>  <Rbt.Library>
librxdock.so/0.1.0

>  <Rbt.Parameter_File>
/root/miniconda3/envs/rdock/share/rxdock-2013.1.1_148c5bd1-0/data/scripts/dock.prm

>  <Rbt.Receptor>
def.prm

>  <SCORE>
-20.721

>  <SCORE.INTER>
-20.0345

>  <SCORE.INTER.CONST>
1

>  <SCORE.INTER.POLAR>
-1.97754

>  <SCORE.INTER.REPUL>
0.0017376

>  <SCORE.INTER.ROT>
1

>  <SCORE.INTER.VDW>
-19.7195

>  <SCORE.INTER.norm>
-0.954022

>  <SCORE.INTRA>
-0.303274

>  <SCORE.INTRA.DIHEDRAL>
0.589014

>  <SCORE.INTRA.DIHEDRAL.0>
6.17317

>  <SCORE.INTRA.POLAR>
0

>  <SCORE.INTRA.POLAR.0>
0

>  <SCORE.INTRA.REPUL>
0

>  <SCORE.INTRA.REPUL.0>
0

>  <SCORE.INTRA.VDW>
-0.597781

>  <SCORE.INTRA.VDW.0>
0.491979

>  <SCORE.INTRA.norm>
-0.0144416

>  <SCORE.RESTR>
0

>  <SCORE.RESTR.CAVITY>
0

>  <SCORE.RESTR.norm>
0

>  <SCORE.SYSTEM>
-0.383241

>  <SCORE.SYSTEM.CONST>
0

>  <SCORE.SYSTEM.DIHEDRAL>
1.16694

>  <SCORE.SYSTEM.POLAR>
-0.0181641

>  <SCORE.SYSTEM.VDW>
-0.904954

>  <SCORE.SYSTEM.norm>
-0.0182496

>  <SCORE.heavy>
21

>  <SCORE.norm>
-0.986713

$$$$
5281614
  RxDock  02242109473D
librxdock.so/0.1.0
 25 27  0  0  0  0  0  0  0  0999 V2000
  -49.9384   -1.8119   13.8589 O   0  0  0  0  0  0
  -46.4952   -0.6540   14.4844 O   0  0  0  0  0  0
  -46.6121   -3.0784   15.8427 O   0  0  0  0  0  0
  -52.3935   -5.6503   15.1896 O   0  0  0  0  0  0
  -51.1728    3.0040   12.7247 O   0  0  0  0  0  0
  -49.1923    3.7019   10.9048 O   0  0  0  0  0  0
  -48.7657   -1.0733   13.8492 C   0  0  0  0  0  0
  -48.8549   -3.4884   15.2397 C   0  0  0  0  0  0
  -49.9583   -2.9992   14.5440 C   0  0  0  0  0  0
  -48.8808    0.1779   13.0791 C   0  0  0  0  0  0
  -47.6352   -1.4283   14.4867 C   0  0  0  0  0  0
  -47.6114   -2.7026   15.2447 C   0  0  0  0  0  0
  -48.9335   -4.7052   15.9217 C   0  0  0  0  0  0
  -51.1498   -3.7247   14.5261 C   0  0  0  0  0  0
  -49.9829    1.0129   13.2646 C   0  0  0  0  0  0
  -47.8874    0.5280   12.1642 C   0  0  0  0  0  0
  -51.2322   -4.9401   15.2056 C   0  0  0  0  0  0
  -50.1261   -5.4293   15.9018 C   0  0  0  0  0  0
  -50.0916    2.1975   12.5361 C   0  0  0  0  0  0
  -47.9963    1.7124   11.4354 C   0  0  0  0  0  0
  -49.0983    2.5471   11.6214 C   0  0  0  0  0  0
  -46.0377   -0.7433   13.6331 H   0  0  0  0  0  0
  -52.1994   -6.5766   15.4145 H   0  0  0  0  0  0
  -51.3791    3.4730   11.9002 H   0  0  0  0  0  0
  -49.7616    3.5614   10.1311 H   0  0  0  0  0  0
  1  7  1  0  0  0
  1  9  1  0  0  0
  2 11  1  0  0  0
  2 22  1  0  0  0
  3 12  2  0  0  0
  4 17  1  0  0  0
  4 23  1  0  0  0
  5 19  1  0  0  0
  5 24  1  0  0  0
  6 21  1  0  0  0
  6 25  1  0  0  0
  7 10  1  0  0  0
  7 11  2  0  0  0
  8  9  2  0  0  0
  8 12  1  0  0  0
  8 13  1  0  0  0
  9 14  1  0  0  0
 10 15  2  0  0  0
 10 16  1  0  0  0
 11 12  1  0  0  0
 13 18  2  0  0  0
 14 17  2  0  0  0
 15 19  1  0  0  0
 16 20  2  0  0  0
 17 18  1  0  0  0
 19 21  2  0  0  0
 20 21  1  0  0  0
M  END
>  <CHROM.0>
64.01036007,-178.80662010,173.67180459

>  <CHROM.1>
-76.73453274,159.70036918,-149.28102240,-82.73368939,46.81485240,-49.25451329
-1.22561801,13.88317188,1.66794611,0.16740507,2.66519490

>  <Name>
5281614

>  <PUBCHEM_ATOM_DEF_STEREO_COUNT>
0

>  <PUBCHEM_ATOM_UDEF_STEREO_COUNT>
0

>  <PUBCHEM_BOND_DEF_STEREO_COUNT>
0

>  <PUBCHEM_BOND_UDEF_STEREO_COUNT>
0

>  <PUBCHEM_CACTVS_TAUTO_COUNT>
211

>  <PUBCHEM_COMPONENT_COUNT>
1

>  <PUBCHEM_COMPOUND_CID>
5281614

>  <PUBCHEM_CONFORMER_DIVERSEORDER>
1
3
2
4

>  <PUBCHEM_CONFORMER_ID>
0050974E00000001

>  <PUBCHEM_CONFORMER_RMSD>
0.6

>  <PUBCHEM_COORDINATE_TYPE>
2
5
10

>  <PUBCHEM_EFFECTIVE_ROTOR_COUNT>
1

>  <PUBCHEM_FEATURE_SELFOVERLAP>
45.705

>  <PUBCHEM_HEAVY_ATOM_COUNT>
21

>  <PUBCHEM_ISOTOPIC_ATOM_COUNT>
0

>  <PUBCHEM_MMFF94_ENERGY>
63.3231

>  <PUBCHEM_MMFF94_PARTIAL_CHARGES>
31
1 -0.16
10 0.03
11 0.09
12 0.47
13 -0.15
14 -0.15
15 -0.15
16 -0.15
17 0.08
18 -0.15
19 0.08
2 -0.53
20 -0.15
21 0.08
22 0.15
23 0.15
24 0.15
25 0.15
26 0.15
27 0.15
28 0.45
29 0.45
3 -0.57
30 0.45
31 0.45
4 -0.53
5 -0.53
6 -0.53
7 0.05
8 0.09
9 0.08

>  <PUBCHEM_PHARMACOPHORE_FEATURES>
9
1 1 acceptor
1 2 donor
1 3 acceptor
1 4 donor
1 5 donor
1 6 donor
6 1 7 8 9 11 12 rings
6 10 15 16 19 20 21 rings
6 8 9 13 14 17 18 rings

>  <PUBCHEM_SHAPE_FINGERPRINT>
10319926 262 18197191691463025650
11046707 91 18409165524084290187
11370993 144 16916795041429104491
11543360 7 15574712534293567507
11552529 35 14619643787438718685
11796584 16 18053666872396607318
12236239 1 17676205732828356282
12363563 72 18338520845390468915
12553582 1 18335422383079402043
12788726 201 18187641337300532121
13140716 1 18339079393340139273
13288520 33 18410009940308579395
13862211 1 18410289242354007383
14386348 63 17917992754818192534
14790565 3 17763186834971878929
15196674 1 18337951294098693961
15961568 22 18336260267091762604
16752209 62 18261386724325207555
16945 1 18409726227938926049
17138139 8 17532082985083390723
17349148 13 17385719171601143218
17492 89 17907293605117387543
17804303 29 18412823599249003441
1813 80 18412549841927571013
18222031 100 18270677688170113671
19141452 34 17775002427494233167
193927 3 18341338906756936155
19862831 5 17530686498194398818
200 152 16588022381663776488
20028762 73 18057885956073817583
20374829 77 18410572903236631871
20871999 31 18337117786637799036
21033648 29 17131255892312039915
21033650 10 18046089085349049940
21065201 7 18341891827797866298
21267235 1 18335986445693298475
21728266 224 18188759570664201938
2297311 6 18412833473088575574
23175994 123 17346881152422268889
23366157 5 17897725602754440013
23402539 116 18408315575399129671
23557571 272 18272649000812649592
23559900 14 18413386519095611444
3004659 81 18040430018584867655
314173 85 18272092703678835857
335352 9 18409726267052334141
465052 167 18266466588748397503
474 4 17023763350005520324
5104073 3 18341336712149552321
573450 72 18187920621695786632
602551 16 18412824668690624378
67856867 119 18187367683775908276
7364860 26 18126285491440728585
7495541 125 18202279217511116160
77492 1 17531530876096207384
7970288 3 18337387253029349179
9709674 26 18199470952612142918

>  <PUBCHEM_SHAPE_MULTIPOLES>
396.95
10.64
2.28
1.08
3.76
1.07
-0.1
-6.17
-0.53
-2.96
-0.07
1.72
-0.2
0.22

>  <PUBCHEM_SHAPE_SELFOVERLAP>
888.737

>  <PUBCHEM_SHAPE_VOLUME>
209.3

>  <RI>
-9.61187e+08

>  <Rbt.Current_Directory>
/root/miniconda3/envs/rdock/share/rxdock-2013.1.1_148c5bd1-0/data/ligands/prepped_ligands/Fisetin

>  <Rbt.Executable>
rbdock/0.1.0

>  <Rbt.Library>
librxdock.so/0.1.0

>  <Rbt.Parameter_File>
/root/miniconda3/envs/rdock/share/rxdock-2013.1.1_148c5bd1-0/data/scripts/dock.prm

>  <Rbt.Receptor>
def.prm

>  <SCORE>
-22.7784

>  <SCORE.INTER>
-24.34

>  <SCORE.INTER.CONST>
1

>  <SCORE.INTER.POLAR>
-2.85245

>  <SCORE.INTER.REPUL>
0

>  <SCORE.INTER.ROT>
1

>  <SCORE.INTER.VDW>
-21.0417

>  <SCORE.INTER.norm>
-1.15905

>  <SCORE.INTRA>
2.57711

>  <SCORE.INTRA.DIHEDRAL>
7.50381

>  <SCORE.INTRA.DIHEDRAL.0>
6.17317

>  <SCORE.INTRA.POLAR>
0

>  <SCORE.INTRA.POLAR.0>
0

>  <SCORE.INTRA.REPUL>
0

>  <SCORE.INTRA.REPUL.0>
0

>  <SCORE.INTRA.VDW>
-1.17479

>  <SCORE.INTRA.VDW.0>
0.491979

>  <SCORE.INTRA.norm>
0.12272

>  <SCORE.RESTR>
0

>  <SCORE.RESTR.CAVITY>
0

>  <SCORE.RESTR.norm>
0

>  <SCORE.SYSTEM>
-1.01551

>  <SCORE.SYSTEM.CONST>
0

>  <SCORE.SYSTEM.DIHEDRAL>
0.14679

>  <SCORE.SYSTEM.VDW>
-1.08891

>  <SCORE.SYSTEM.norm>
-0.0483578

>  <SCORE.heavy>
21

>  <SCORE.norm>
-1.08469

$$$$
5281614
  RxDock  02242109473D
librxdock.so/0.1.0
 25 27  0  0  0  0  0  0  0  0999 V2000
  -50.3185   -3.1116   15.1085 O   0  0  0  0  0  0
  -49.7446   -5.8311   17.5298 O   0  0  0  0  0  0
  -47.2426   -4.6375   17.3028 O   0  0  0  0  0  0
  -47.5173    0.2018   13.1831 O   0  0  0  0  0  0
  -53.9368   -7.1421   14.1884 O   0  0  0  0  0  0
  -55.7948   -6.0994   15.9723 O   0  0  0  0  0  0
  -50.5043   -4.1851   15.9651 C   0  0  0  0  0  0
  -47.9776   -3.0268   15.7449 C   0  0  0  0  0  0
  -49.0693   -2.5537   15.0201 C   0  0  0  0  0  0
  -51.8894   -4.6883   15.9641 C   0  0  0  0  0  0
  -49.5336   -4.7420   16.7122 C   0  0  0  0  0  0
  -48.1652   -4.1746   16.6455 C   0  0  0  0  0  0
  -46.7266   -2.4188   15.6137 C   0  0  0  0  0  0
  -48.9166   -1.4679   14.1575 C   0  0  0  0  0  0
  -52.2678   -5.6891   15.0688 C   0  0  0  0  0  0
  -52.8230   -4.1641   16.8585 C   0  0  0  0  0  0
  -47.6692   -0.8580   14.0239 C   0  0  0  0  0  0
  -46.5765   -1.3327   14.7507 C   0  0  0  0  0  0
  -53.5787   -6.1658   15.0680 C   0  0  0  0  0  0
  -54.1340   -4.6405   16.8575 C   0  0  0  0  0  0
  -54.5119   -5.6413   15.9624 C   0  0  0  0  0  0
  -49.0109   -5.9178   18.1594 H   0  0  0  0  0  0
  -46.7125    0.0704   12.6527 H   0  0  0  0  0  0
  -54.7879   -6.9176   13.7789 H   0  0  0  0  0  0
  -55.8815   -6.8430   15.3542 H   0  0  0  0  0  0
  1  7  1  0  0  0
  1  9  1  0  0  0
  2 11  1  0  0  0
  2 22  1  0  0  0
  3 12  2  0  0  0
  4 17  1  0  0  0
  4 23  1  0  0  0
  5 19  1  0  0  0
  5 24  1  0  0  0
  6 21  1  0  0  0
  6 25  1  0  0  0
  7 10  1  0  0  0
  7 11  2  0  0  0
  8  9  2  0  0  0
  8 12  1  0  0  0
  8 13  1  0  0  0
  9 14  1  0  0  0
 10 15  2  0  0  0
 10 16  1  0  0  0
 11 12  1  0  0  0
 13 18  2  0  0  0
 14 17  2  0  0  0
 15 19  1  0  0  0
 16 20  2  0  0  0
 17 18  1  0  0  0
 19 21  2  0  0  0
 20 21  1  0  0  0
M  END
>  <CHROM.0>
174.71603247,64.42204723,57.85034293

>  <CHROM.1>
-163.86174586,-134.18103420,-134.96665282,4.99549761,90.01400518,-50.46444601
-3.96565072,15.59003932,0.49062630,-0.30751410,-0.72253037

>  <Name>
5281614

>  <PUBCHEM_ATOM_DEF_STEREO_COUNT>
0

>  <PUBCHEM_ATOM_UDEF_STEREO_COUNT>
0

>  <PUBCHEM_BOND_DEF_STEREO_COUNT>
0

>  <PUBCHEM_BOND_UDEF_STEREO_COUNT>
0

>  <PUBCHEM_CACTVS_TAUTO_COUNT>
211

>  <PUBCHEM_COMPONENT_COUNT>
1

>  <PUBCHEM_COMPOUND_CID>
5281614

>  <PUBCHEM_CONFORMER_DIVERSEORDER>
1
3
2
4

>  <PUBCHEM_CONFORMER_ID>
0050974E00000001

>  <PUBCHEM_CONFORMER_RMSD>
0.6

>  <PUBCHEM_COORDINATE_TYPE>
2
5
10

>  <PUBCHEM_EFFECTIVE_ROTOR_COUNT>
1

>  <PUBCHEM_FEATURE_SELFOVERLAP>
45.705

>  <PUBCHEM_HEAVY_ATOM_COUNT>
21

>  <PUBCHEM_ISOTOPIC_ATOM_COUNT>
0

>  <PUBCHEM_MMFF94_ENERGY>
63.3231

>  <PUBCHEM_MMFF94_PARTIAL_CHARGES>
31
1 -0.16
10 0.03
11 0.09
12 0.47
13 -0.15
14 -0.15
15 -0.15
16 -0.15
17 0.08
18 -0.15
19 0.08
2 -0.53
20 -0.15
21 0.08
22 0.15
23 0.15
24 0.15
25 0.15
26 0.15
27 0.15
28 0.45
29 0.45
3 -0.57
30 0.45
31 0.45
4 -0.53
5 -0.53
6 -0.53
7 0.05
8 0.09
9 0.08

>  <PUBCHEM_PHARMACOPHORE_FEATURES>
9
1 1 acceptor
1 2 donor
1 3 acceptor
1 4 donor
1 5 donor
1 6 donor
6 1 7 8 9 11 12 rings
6 10 15 16 19 20 21 rings
6 8 9 13 14 17 18 rings

>  <PUBCHEM_SHAPE_FINGERPRINT>
10319926 262 18197191691463025650
11046707 91 18409165524084290187
11370993 144 16916795041429104491
11543360 7 15574712534293567507
11552529 35 14619643787438718685
11796584 16 18053666872396607318
12236239 1 17676205732828356282
12363563 72 18338520845390468915
12553582 1 18335422383079402043
12788726 201 18187641337300532121
13140716 1 18339079393340139273
13288520 33 18410009940308579395
13862211 1 18410289242354007383
14386348 63 17917992754818192534
14790565 3 17763186834971878929
15196674 1 18337951294098693961
15961568 22 18336260267091762604
16752209 62 18261386724325207555
16945 1 18409726227938926049
17138139 8 17532082985083390723
17349148 13 17385719171601143218
17492 89 17907293605117387543
17804303 29 18412823599249003441
1813 80 18412549841927571013
18222031 100 18270677688170113671
19141452 34 17775002427494233167
193927 3 18341338906756936155
19862831 5 17530686498194398818
200 152 16588022381663776488
20028762 73 18057885956073817583
20374829 77 18410572903236631871
20871999 31 18337117786637799036
21033648 29 17131255892312039915
21033650 10 18046089085349049940
21065201 7 18341891827797866298
21267235 1 18335986445693298475
21728266 224 18188759570664201938
2297311 6 18412833473088575574
23175994 123 17346881152422268889
23366157 5 17897725602754440013
23402539 116 18408315575399129671
23557571 272 18272649000812649592
23559900 14 18413386519095611444
3004659 81 18040430018584867655
314173 85 18272092703678835857
335352 9 18409726267052334141
465052 167 18266466588748397503
474 4 17023763350005520324
5104073 3 18341336712149552321
573450 72 18187920621695786632
602551 16 18412824668690624378
67856867 119 18187367683775908276
7364860 26 18126285491440728585
7495541 125 18202279217511116160
77492 1 17531530876096207384
7970288 3 18337387253029349179
9709674 26 18199470952612142918

>  <PUBCHEM_SHAPE_MULTIPOLES>
396.95
10.64
2.28
1.08
3.76
1.07
-0.1
-6.17
-0.53
-2.96
-0.07
1.72
-0.2
0.22

>  <PUBCHEM_SHAPE_SELFOVERLAP>
888.737

>  <PUBCHEM_SHAPE_VOLUME>
209.3

>  <RI>
-9.61187e+08

>  <Rbt.Current_Directory>
/root/miniconda3/envs/rdock/share/rxdock-2013.1.1_148c5bd1-0/data/ligands/prepped_ligands/Fisetin

>  <Rbt.Executable>
rbdock/0.1.0

>  <Rbt.Library>
librxdock.so/0.1.0

>  <Rbt.Parameter_File>
/root/miniconda3/envs/rdock/share/rxdock-2013.1.1_148c5bd1-0/data/scripts/dock.prm

>  <Rbt.Receptor>
def.prm

>  <SCORE>
-16.366

>  <SCORE.INTER>
-16.2509

>  <SCORE.INTER.CONST>
1

>  <SCORE.INTER.POLAR>
-2.11772

>  <SCORE.INTER.REPUL>
0.107101

>  <SCORE.INTER.ROT>
1

>  <SCORE.INTER.VDW>
-15.9862

>  <SCORE.INTER.norm>
-0.773854

>  <SCORE.INTRA>
0.832946

>  <SCORE.INTRA.DIHEDRAL>
3.91994

>  <SCORE.INTRA.DIHEDRAL.0>
6.17317

>  <SCORE.INTRA.POLAR>
0

>  <SCORE.INTRA.POLAR.0>
0

>  <SCORE.INTRA.REPUL>
0

>  <SCORE.INTRA.REPUL.0>
0

>  <SCORE.INTRA.VDW>
-1.12703

>  <SCORE.INTRA.VDW.0>
0.491979

>  <SCORE.INTRA.norm>
0.0396641

>  <SCORE.RESTR>
0

>  <SCORE.RESTR.CAVITY>
0

>  <SCORE.RESTR.norm>
0

>  <SCORE.SYSTEM>
-0.948027

>  <SCORE.SYSTEM.CONST>
0

>  <SCORE.SYSTEM.DIHEDRAL>
0.181712

>  <SCORE.SYSTEM.VDW>
-1.03888

>  <SCORE.SYSTEM.norm>
-0.0451441

>  <SCORE.heavy>
21

>  <SCORE.norm>
-0.779334

$$$$
5281614
  RxDock  02242109473D
librxdock.so/0.1.0
 25 27  0  0  0  0  0  0  0  0999 V2000
  -52.2649   -3.6478   14.8512 O   0  0  0  0  0  0
  -52.5534   -5.0117   18.2636 O   0  0  0  0  0  0
  -50.9636   -2.7558   18.6083 O   0  0  0  0  0  0
  -50.0299    0.1121   13.0074 O   0  0  0  0  0  0
  -53.9738   -9.0586   16.5717 O   0  0  0  0  0  0
  -55.8589   -8.8076   14.5456 O   0  0  0  0  0  0
  -52.6141   -4.4285   15.9418 C   0  0  0  0  0  0
  -51.0001   -2.1866   16.3199 C   0  0  0  0  0  0
  -51.4753   -2.5468   15.0608 C   0  0  0  0  0  0
  -53.4621   -5.5777   15.5781 C   0  0  0  0  0  0
  -52.2151   -4.1961   17.2056 C   0  0  0  0  0  0
  -51.3559   -3.0189   17.4794 C   0  0  0  0  0  0
  -50.1974   -1.0535   16.4735 C   0  0  0  0  0  0
  -51.1499   -1.7751   13.9451 C   0  0  0  0  0  0
  -53.3198   -6.7910   16.2517 C   0  0  0  0  0  0
  -54.4076   -5.4526   14.5599 C   0  0  0  0  0  0
  -50.3489   -0.6429   14.0943 C   0  0  0  0  0  0
  -49.8737   -0.2830   15.3561 C   0  0  0  0  0  0
  -54.1227   -7.8786   15.9079 C   0  0  0  0  0  0
  -55.2103   -6.5403   14.2158 C   0  0  0  0  0  0
  -55.0679   -7.7532   14.8898 C   0  0  0  0  0  0
  -53.4687   -5.3191   18.1635 H   0  0  0  0  0  0
  -50.6421   -0.1041   12.2830 H   0  0  0  0  0  0
  -54.5149   -9.7436   16.1470 H   0  0  0  0  0  0
  -56.3616   -8.5914   13.7437 H   0  0  0  0  0  0
  1  7  1  0  0  0
  1  9  1  0  0  0
  2 11  1  0  0  0
  2 22  1  0  0  0
  3 12  2  0  0  0
  4 17  1  0  0  0
  4 23  1  0  0  0
  5 19  1  0  0  0
  5 24  1  0  0  0
  6 21  1  0  0  0
  6 25  1  0  0  0
  7 10  1  0  0  0
  7 11  2  0  0  0
  8  9  2  0  0  0
  8 12  1  0  0  0
  8 13  1  0  0  0
  9 14  1  0  0  0
 10 15  2  0  0  0
 10 16  1  0  0  0
 11 12  1  0  0  0
 13 18  2  0  0  0
 14 17  2  0  0  0
 15 19  1  0  0  0
 16 20  2  0  0  0
 17 18  1  0  0  0
 19 21  2  0  0  0
 20 21  1  0  0  0
M  END
>  <CHROM.0>
-179.92249174,177.08961141,54.07905786

>  <CHROM.1>
-38.48740375,17.17842262,-172.73631948,-171.79186745,144.49752576,-52.48017431
-4.31410128,15.67830974,0.40136935,-0.96144572,-1.14121038

>  <Name>
5281614

>  <PUBCHEM_ATOM_DEF_STEREO_COUNT>
0

>  <PUBCHEM_ATOM_UDEF_STEREO_COUNT>
0

>  <PUBCHEM_BOND_DEF_STEREO_COUNT>
0

>  <PUBCHEM_BOND_UDEF_STEREO_COUNT>
0

>  <PUBCHEM_CACTVS_TAUTO_COUNT>
211

>  <PUBCHEM_COMPONENT_COUNT>
1

>  <PUBCHEM_COMPOUND_CID>
5281614

>  <PUBCHEM_CONFORMER_DIVERSEORDER>
1
3
2
4

>  <PUBCHEM_CONFORMER_ID>
0050974E00000001

>  <PUBCHEM_CONFORMER_RMSD>
0.6

>  <PUBCHEM_COORDINATE_TYPE>
2
5
10

>  <PUBCHEM_EFFECTIVE_ROTOR_COUNT>
1

>  <PUBCHEM_FEATURE_SELFOVERLAP>
45.705

>  <PUBCHEM_HEAVY_ATOM_COUNT>
21

>  <PUBCHEM_ISOTOPIC_ATOM_COUNT>
0

>  <PUBCHEM_MMFF94_ENERGY>
63.3231

>  <PUBCHEM_MMFF94_PARTIAL_CHARGES>
31
1 -0.16
10 0.03
11 0.09
12 0.47
13 -0.15
14 -0.15
15 -0.15
16 -0.15
17 0.08
18 -0.15
19 0.08
2 -0.53
20 -0.15
21 0.08
22 0.15
23 0.15
24 0.15
25 0.15
26 0.15
27 0.15
28 0.45
29 0.45
3 -0.57
30 0.45
31 0.45
4 -0.53
5 -0.53
6 -0.53
7 0.05
8 0.09
9 0.08

>  <PUBCHEM_PHARMACOPHORE_FEATURES>
9
1 1 acceptor
1 2 donor
1 3 acceptor
1 4 donor
1 5 donor
1 6 donor
6 1 7 8 9 11 12 rings
6 10 15 16 19 20 21 rings
6 8 9 13 14 17 18 rings

>  <PUBCHEM_SHAPE_FINGERPRINT>
10319926 262 18197191691463025650
11046707 91 18409165524084290187
11370993 144 16916795041429104491
11543360 7 15574712534293567507
11552529 35 14619643787438718685
11796584 16 18053666872396607318
12236239 1 17676205732828356282
12363563 72 18338520845390468915
12553582 1 18335422383079402043
12788726 201 18187641337300532121
13140716 1 18339079393340139273
13288520 33 18410009940308579395
13862211 1 18410289242354007383
14386348 63 17917992754818192534
14790565 3 17763186834971878929
15196674 1 18337951294098693961
15961568 22 18336260267091762604
16752209 62 18261386724325207555
16945 1 18409726227938926049
17138139 8 17532082985083390723
17349148 13 17385719171601143218
17492 89 17907293605117387543
17804303 29 18412823599249003441
1813 80 18412549841927571013
18222031 100 18270677688170113671
19141452 34 17775002427494233167
193927 3 18341338906756936155
19862831 5 17530686498194398818
200 152 16588022381663776488
20028762 73 18057885956073817583
20374829 77 18410572903236631871
20871999 31 18337117786637799036
21033648 29 17131255892312039915
21033650 10 18046089085349049940
21065201 7 18341891827797866298
21267235 1 18335986445693298475
21728266 224 18188759570664201938
2297311 6 18412833473088575574
23175994 123 17346881152422268889
23366157 5 17897725602754440013
23402539 116 18408315575399129671
23557571 272 18272649000812649592
23559900 14 18413386519095611444
3004659 81 18040430018584867655
314173 85 18272092703678835857
335352 9 18409726267052334141
465052 167 18266466588748397503
474 4 17023763350005520324
5104073 3 18341336712149552321
573450 72 18187920621695786632
602551 16 18412824668690624378
67856867 119 18187367683775908276
7364860 26 18126285491440728585
7495541 125 18202279217511116160
77492 1 17531530876096207384
7970288 3 18337387253029349179
9709674 26 18199470952612142918

>  <PUBCHEM_SHAPE_MULTIPOLES>
396.95
10.64
2.28
1.08
3.76
1.07
-0.1
-6.17
-0.53
-2.96
-0.07
1.72
-0.2
0.22

>  <PUBCHEM_SHAPE_SELFOVERLAP>
888.737

>  <PUBCHEM_SHAPE_VOLUME>
209.3

>  <RI>
-9.61187e+08

>  <Rbt.Current_Directory>
/root/miniconda3/envs/rdock/share/rxdock-2013.1.1_148c5bd1-0/data/ligands/prepped_ligands/Fisetin

>  <Rbt.Executable>
rbdock/0.1.0

>  <Rbt.Library>
librxdock.so/0.1.0

>  <Rbt.Parameter_File>
/root/miniconda3/envs/rdock/share/rxdock-2013.1.1_148c5bd1-0/data/scripts/dock.prm

>  <Rbt.Receptor>
def.prm

>  <SCORE>
-20.8309

>  <SCORE.INTER>
-18.8646

>  <SCORE.INTER.CONST>
1

>  <SCORE.INTER.POLAR>
-1.67518

>  <SCORE.INTER.REPUL>
0.0840219

>  <SCORE.INTER.ROT>
1

>  <SCORE.INTER.VDW>
-19.9891

>  <SCORE.INTER.norm>
-0.898313

>  <SCORE.INTRA>
-0.948095

>  <SCORE.INTRA.DIHEDRAL>
-2.17677

>  <SCORE.INTRA.DIHEDRAL.0>
6.17317

>  <SCORE.INTRA.POLAR>
-0.118556

>  <SCORE.INTRA.POLAR.0>
0

>  <SCORE.INTRA.REPUL>
0

>  <SCORE.INTRA.REPUL.0>
0

>  <SCORE.INTRA.VDW>
0.543384

>  <SCORE.INTRA.VDW.0>
0.491979

>  <SCORE.INTRA.norm>
-0.0451474

>  <SCORE.RESTR>
0

>  <SCORE.RESTR.CAVITY>
0

>  <SCORE.RESTR.norm>
0

>  <SCORE.SYSTEM>
-1.01825

>  <SCORE.SYSTEM.CONST>
0

>  <SCORE.SYSTEM.DIHEDRAL>
0.132435

>  <SCORE.SYSTEM.VDW>
-1.08447

>  <SCORE.SYSTEM.norm>
-0.0484883

>  <SCORE.heavy>
21

>  <SCORE.norm>
-0.991948

$$$$
