5281614
  RxDock  02242110563D
librxdock.so/0.1.0
 25 27  0  0  0  0  0  0  0  0999 V2000
  -50.2940   -5.4896   16.7256 O   0  0  0  0  0  0
  -53.5248   -5.4450   14.9513 O   0  0  0  0  0  0
  -53.7703   -7.6150   16.6737 O   0  0  0  0  0  0
  -48.4391   -8.2924   20.0775 O   0  0  0  0  0  0
  -48.3344   -2.6851   12.9568 O   0  0  0  0  0  0
  -50.2107   -0.6528   12.6902 O   0  0  0  0  0  0
  -51.3432   -5.1395   15.8903 C   0  0  0  0  0  0
  -51.6146   -7.3345   17.5882 C   0  0  0  0  0  0
  -50.4512   -6.5687   17.5564 C   0  0  0  0  0  0
  -51.0432   -3.9654   15.0518 C   0  0  0  0  0  0
  -52.5133   -5.7998   15.8175 C   0  0  0  0  0  0
  -52.7266   -6.9764   16.6944 C   0  0  0  0  0  0
  -51.7181   -8.4250   18.4554 C   0  0  0  0  0  0
  -49.3816   -6.8894   18.3927 C   0  0  0  0  0  0
  -49.8181   -3.8745   14.3906 C   0  0  0  0  0  0
  -51.9843   -2.9441   14.9188 C   0  0  0  0  0  0
  -49.4811   -7.9773   19.2601 C   0  0  0  0  0  0
  -50.6471   -8.7434   19.2913 C   0  0  0  0  0  0
  -49.5343   -2.7633   13.5965 C   0  0  0  0  0  0
  -51.7003   -1.8328   14.1251 C   0  0  0  0  0  0
  -50.4755   -1.7424   13.4638 C   0  0  0  0  0  0
  -53.1723   -4.8770   14.2476 H   0  0  0  0  0  0
  -48.7750   -8.8045   20.8332 H   0  0  0  0  0  0
  -48.4767   -2.4868   12.0172 H   0  0  0  0  0  0
  -49.2581   -0.6036   12.5094 H   0  0  0  0  0  0
  1  7  1  0  0  0
  1  9  1  0  0  0
  2 11  1  0  0  0
  2 22  1  0  0  0
  3 12  2  0  0  0
  4 17  1  0  0  0
  4 23  1  0  0  0
  5 19  1  0  0  0
  5 24  1  0  0  0
  6 21  1  0  0  0
  6 25  1  0  0  0
  7 10  1  0  0  0
  7 11  2  0  0  0
  8  9  2  0  0  0
  8 12  1  0  0  0
  8 13  1  0  0  0
  9 14  1  0  0  0
 10 15  2  0  0  0
 10 16  1  0  0  0
 11 12  1  0  0  0
 13 18  2  0  0  0
 14 17  2  0  0  0
 15 19  1  0  0  0
 16 20  2  0  0  0
 17 18  1  0  0  0
 19 21  2  0  0  0
 20 21  1  0  0  0
M  END
>  <CHROM.0>
61.18499376,-60.71370003,54.39244941

>  <CHROM.1>
18.02805591,157.36320556,129.19655336,-16.22471914,45.60260256,-50.87858850
-5.25900331,16.07804554,-1.61029490,-0.23799926,-0.73756051

>  <Name>
5281614

>  <PUBCHEM_ATOM_DEF_STEREO_COUNT>
0

>  <PUBCHEM_ATOM_UDEF_STEREO_COUNT>
0

>  <PUBCHEM_BOND_DEF_STEREO_COUNT>
0

>  <PUBCHEM_BOND_UDEF_STEREO_COUNT>
0

>  <PUBCHEM_CACTVS_TAUTO_COUNT>
211

>  <PUBCHEM_COMPONENT_COUNT>
1

>  <PUBCHEM_COMPOUND_CID>
5281614

>  <PUBCHEM_CONFORMER_DIVERSEORDER>
1
3
2
4

>  <PUBCHEM_CONFORMER_ID>
0050974E00000001

>  <PUBCHEM_CONFORMER_RMSD>
0.6

>  <PUBCHEM_COORDINATE_TYPE>
2
5
10

>  <PUBCHEM_EFFECTIVE_ROTOR_COUNT>
1

>  <PUBCHEM_FEATURE_SELFOVERLAP>
45.705

>  <PUBCHEM_HEAVY_ATOM_COUNT>
21

>  <PUBCHEM_ISOTOPIC_ATOM_COUNT>
0

>  <PUBCHEM_MMFF94_ENERGY>
63.3231

>  <PUBCHEM_MMFF94_PARTIAL_CHARGES>
31
1 -0.16
10 0.03
11 0.09
12 0.47
13 -0.15
14 -0.15
15 -0.15
16 -0.15
17 0.08
18 -0.15
19 0.08
2 -0.53
20 -0.15
21 0.08
22 0.15
23 0.15
24 0.15
25 0.15
26 0.15
27 0.15
28 0.45
29 0.45
3 -0.57
30 0.45
31 0.45
4 -0.53
5 -0.53
6 -0.53
7 0.05
8 0.09
9 0.08

>  <PUBCHEM_PHARMACOPHORE_FEATURES>
9
1 1 acceptor
1 2 donor
1 3 acceptor
1 4 donor
1 5 donor
1 6 donor
6 1 7 8 9 11 12 rings
6 10 15 16 19 20 21 rings
6 8 9 13 14 17 18 rings

>  <PUBCHEM_SHAPE_FINGERPRINT>
10319926 262 18197191691463025650
11046707 91 18409165524084290187
11370993 144 16916795041429104491
11543360 7 15574712534293567507
11552529 35 14619643787438718685
11796584 16 18053666872396607318
12236239 1 17676205732828356282
12363563 72 18338520845390468915
12553582 1 18335422383079402043
12788726 201 18187641337300532121
13140716 1 18339079393340139273
13288520 33 18410009940308579395
13862211 1 18410289242354007383
14386348 63 17917992754818192534
14790565 3 17763186834971878929
15196674 1 18337951294098693961
15961568 22 18336260267091762604
16752209 62 18261386724325207555
16945 1 18409726227938926049
17138139 8 17532082985083390723
17349148 13 17385719171601143218
17492 89 17907293605117387543
17804303 29 18412823599249003441
1813 80 18412549841927571013
18222031 100 18270677688170113671
19141452 34 17775002427494233167
193927 3 18341338906756936155
19862831 5 17530686498194398818
200 152 16588022381663776488
20028762 73 18057885956073817583
20374829 77 18410572903236631871
20871999 31 18337117786637799036
21033648 29 17131255892312039915
21033650 10 18046089085349049940
21065201 7 18341891827797866298
21267235 1 18335986445693298475
21728266 224 18188759570664201938
2297311 6 18412833473088575574
23175994 123 17346881152422268889
23366157 5 17897725602754440013
23402539 116 18408315575399129671
23557571 272 18272649000812649592
23559900 14 18413386519095611444
3004659 81 18040430018584867655
314173 85 18272092703678835857
335352 9 18409726267052334141
465052 167 18266466588748397503
474 4 17023763350005520324
5104073 3 18341336712149552321
573450 72 18187920621695786632
602551 16 18412824668690624378
67856867 119 18187367683775908276
7364860 26 18126285491440728585
7495541 125 18202279217511116160
77492 1 17531530876096207384
7970288 3 18337387253029349179
9709674 26 18199470952612142918

>  <PUBCHEM_SHAPE_MULTIPOLES>
396.95
10.64
2.28
1.08
3.76
1.07
-0.1
-6.17
-0.53
-2.96
-0.07
1.72
-0.2
0.22

>  <PUBCHEM_SHAPE_SELFOVERLAP>
888.737

>  <PUBCHEM_SHAPE_VOLUME>
209.3

>  <RI>
-5.44169e+08

>  <Rbt.Current_Directory>
/root/miniconda3/envs/rdock/share/rxdock-2013.1.1_148c5bd1-0/data/ligands/prepped_ligands/Fisetin

>  <Rbt.Executable>
rbdock/0.1.0

>  <Rbt.Library>
librxdock.so/0.1.0

>  <Rbt.Parameter_File>
/root/miniconda3/envs/rdock/share/rxdock-2013.1.1_148c5bd1-0/data/scripts/dock.prm

>  <Rbt.Receptor>
def.prm

>  <SCORE>
-15.4003

>  <SCORE.INTER>
-14.7269

>  <SCORE.INTER.CONST>
1

>  <SCORE.INTER.POLAR>
-1.7668

>  <SCORE.INTER.REPUL>
0.0049333

>  <SCORE.INTER.ROT>
1

>  <SCORE.INTER.VDW>
-15.1445

>  <SCORE.INTER.norm>
-0.701281

>  <SCORE.INTRA>
0.338222

>  <SCORE.INTRA.DIHEDRAL>
0.772476

>  <SCORE.INTRA.DIHEDRAL.0>
6.17317

>  <SCORE.INTRA.POLAR>
0

>  <SCORE.INTRA.POLAR.0>
0

>  <SCORE.INTRA.REPUL>
0

>  <SCORE.INTRA.REPUL.0>
0

>  <SCORE.INTRA.VDW>
-0.0480161

>  <SCORE.INTRA.VDW.0>
0.491979

>  <SCORE.INTRA.norm>
0.0161058

>  <SCORE.RESTR>
0.0126345

>  <SCORE.RESTR.CAVITY>
0.0126345

>  <SCORE.RESTR.norm>
0.000601641

>  <SCORE.SYSTEM>
-1.02428

>  <SCORE.SYSTEM.CONST>
0

>  <SCORE.SYSTEM.DIHEDRAL>
0.0868365

>  <SCORE.SYSTEM.VDW>
-1.0677

>  <SCORE.SYSTEM.norm>
-0.0487754

>  <SCORE.heavy>
21

>  <SCORE.norm>
-0.733349

$$$$
5281614
  RxDock  02242110563D
librxdock.so/0.1.0
 25 27  0  0  0  0  0  0  0  0999 V2000
  -50.4063   -1.4379   13.7425 O   0  0  0  0  0  0
  -46.8018   -0.9680   14.3546 O   0  0  0  0  0  0
  -47.3579   -3.3787   15.6254 O   0  0  0  0  0  0
  -53.5239   -4.7996   14.9719 O   0  0  0  0  0  0
  -50.7719    3.5358   12.7474 O   0  0  0  0  0  0
  -48.6682    3.9503   10.9799 O   0  0  0  0  0  0
  -49.1162   -0.9313   13.7409 C   0  0  0  0  0  0
  -49.6431   -3.3394   15.0439 C   0  0  0  0  0  0
  -50.6417   -2.6263   14.3842 C   0  0  0  0  0  0
  -49.0021    0.3483   13.0189 C   0  0  0  0  0  0
  -48.0664   -1.5154   14.3470 C   0  0  0  0  0  0
  -48.2746   -2.8002   15.0576 C   0  0  0  0  0  0
  -49.9418   -4.5457   15.6823 C   0  0  0  0  0  0
  -51.9480   -3.1155   14.3590 C   0  0  0  0  0  0
  -49.9490    1.3522   13.2235 C   0  0  0  0  0  0
  -47.9469    0.5564   12.1303 C   0  0  0  0  0  0
  -52.2503   -4.3197   14.9950 C   0  0  0  0  0  0
  -51.2490   -5.0332   15.6552 C   0  0  0  0  0  0
  -49.8407    2.5636   12.5405 C   0  0  0  0  0  0
  -47.8388    1.7676   11.4469 C   0  0  0  0  0  0
  -48.7856    2.7712   11.6520 C   0  0  0  0  0  0
  -46.4379   -0.9660   13.4548 H   0  0  0  0  0  0
  -54.0823   -4.1870   14.4627 H   0  0  0  0  0  0
  -50.3333    4.3543   13.0303 H   0  0  0  0  0  0
  -49.5353    4.2182   10.6353 H   0  0  0  0  0  0
  1  7  1  0  0  0
  1  9  1  0  0  0
  2 11  1  0  0  0
  2 22  1  0  0  0
  3 12  2  0  0  0
  4 17  1  0  0  0
  4 23  1  0  0  0
  5 19  1  0  0  0
  5 24  1  0  0  0
  6 21  1  0  0  0
  6 25  1  0  0  0
  7 10  1  0  0  0
  7 11  2  0  0  0
  8  9  2  0  0  0
  8 12  1  0  0  0
  8 13  1  0  0  0
  9 14  1  0  0  0
 10 15  2  0  0  0
 10 16  1  0  0  0
 11 12  1  0  0  0
 13 18  2  0  0  0
 14 17  2  0  0  0
 15 19  1  0  0  0
 16 20  2  0  0  0
 17 18  1  0  0  0
 19 21  2  0  0  0
 20 21  1  0  0  0
M  END
>  <CHROM.0>
55.49094750,175.66589649,-178.64960652

>  <CHROM.1>
-66.72110616,0.77643959,124.03451790,-44.35726665,44.96616910,-49.62831202
-0.98458259,13.77668499,1.83131461,0.07173325,2.68433811

>  <Name>
5281614

>  <PUBCHEM_ATOM_DEF_STEREO_COUNT>
0

>  <PUBCHEM_ATOM_UDEF_STEREO_COUNT>
0

>  <PUBCHEM_BOND_DEF_STEREO_COUNT>
0

>  <PUBCHEM_BOND_UDEF_STEREO_COUNT>
0

>  <PUBCHEM_CACTVS_TAUTO_COUNT>
211

>  <PUBCHEM_COMPONENT_COUNT>
1

>  <PUBCHEM_COMPOUND_CID>
5281614

>  <PUBCHEM_CONFORMER_DIVERSEORDER>
1
3
2
4

>  <PUBCHEM_CONFORMER_ID>
0050974E00000001

>  <PUBCHEM_CONFORMER_RMSD>
0.6

>  <PUBCHEM_COORDINATE_TYPE>
2
5
10

>  <PUBCHEM_EFFECTIVE_ROTOR_COUNT>
1

>  <PUBCHEM_FEATURE_SELFOVERLAP>
45.705

>  <PUBCHEM_HEAVY_ATOM_COUNT>
21

>  <PUBCHEM_ISOTOPIC_ATOM_COUNT>
0

>  <PUBCHEM_MMFF94_ENERGY>
63.3231

>  <PUBCHEM_MMFF94_PARTIAL_CHARGES>
31
1 -0.16
10 0.03
11 0.09
12 0.47
13 -0.15
14 -0.15
15 -0.15
16 -0.15
17 0.08
18 -0.15
19 0.08
2 -0.53
20 -0.15
21 0.08
22 0.15
23 0.15
24 0.15
25 0.15
26 0.15
27 0.15
28 0.45
29 0.45
3 -0.57
30 0.45
31 0.45
4 -0.53
5 -0.53
6 -0.53
7 0.05
8 0.09
9 0.08

>  <PUBCHEM_PHARMACOPHORE_FEATURES>
9
1 1 acceptor
1 2 donor
1 3 acceptor
1 4 donor
1 5 donor
1 6 donor
6 1 7 8 9 11 12 rings
6 10 15 16 19 20 21 rings
6 8 9 13 14 17 18 rings

>  <PUBCHEM_SHAPE_FINGERPRINT>
10319926 262 18197191691463025650
11046707 91 18409165524084290187
11370993 144 16916795041429104491
11543360 7 15574712534293567507
11552529 35 14619643787438718685
11796584 16 18053666872396607318
12236239 1 17676205732828356282
12363563 72 18338520845390468915
12553582 1 18335422383079402043
12788726 201 18187641337300532121
13140716 1 18339079393340139273
13288520 33 18410009940308579395
13862211 1 18410289242354007383
14386348 63 17917992754818192534
14790565 3 17763186834971878929
15196674 1 18337951294098693961
15961568 22 18336260267091762604
16752209 62 18261386724325207555
16945 1 18409726227938926049
17138139 8 17532082985083390723
17349148 13 17385719171601143218
17492 89 17907293605117387543
17804303 29 18412823599249003441
1813 80 18412549841927571013
18222031 100 18270677688170113671
19141452 34 17775002427494233167
193927 3 18341338906756936155
19862831 5 17530686498194398818
200 152 16588022381663776488
20028762 73 18057885956073817583
20374829 77 18410572903236631871
20871999 31 18337117786637799036
21033648 29 17131255892312039915
21033650 10 18046089085349049940
21065201 7 18341891827797866298
21267235 1 18335986445693298475
21728266 224 18188759570664201938
2297311 6 18412833473088575574
23175994 123 17346881152422268889
23366157 5 17897725602754440013
23402539 116 18408315575399129671
23557571 272 18272649000812649592
23559900 14 18413386519095611444
3004659 81 18040430018584867655
314173 85 18272092703678835857
335352 9 18409726267052334141
465052 167 18266466588748397503
474 4 17023763350005520324
5104073 3 18341336712149552321
573450 72 18187920621695786632
602551 16 18412824668690624378
67856867 119 18187367683775908276
7364860 26 18126285491440728585
7495541 125 18202279217511116160
77492 1 17531530876096207384
7970288 3 18337387253029349179
9709674 26 18199470952612142918

>  <PUBCHEM_SHAPE_MULTIPOLES>
396.95
10.64
2.28
1.08
3.76
1.07
-0.1
-6.17
-0.53
-2.96
-0.07
1.72
-0.2
0.22

>  <PUBCHEM_SHAPE_SELFOVERLAP>
888.737

>  <PUBCHEM_SHAPE_VOLUME>
209.3

>  <RI>
-5.44169e+08

>  <Rbt.Current_Directory>
/root/miniconda3/envs/rdock/share/rxdock-2013.1.1_148c5bd1-0/data/ligands/prepped_ligands/Fisetin

>  <Rbt.Executable>
rbdock/0.1.0

>  <Rbt.Library>
librxdock.so/0.1.0

>  <Rbt.Parameter_File>
/root/miniconda3/envs/rdock/share/rxdock-2013.1.1_148c5bd1-0/data/scripts/dock.prm

>  <Rbt.Receptor>
def.prm

>  <SCORE>
-20.3937

>  <SCORE.INTER>
-21.4686

>  <SCORE.INTER.CONST>
1

>  <SCORE.INTER.POLAR>
-1.93827

>  <SCORE.INTER.REPUL>
0

>  <SCORE.INTER.ROT>
1

>  <SCORE.INTER.VDW>
-21.2785

>  <SCORE.INTER.norm>
-1.02231

>  <SCORE.INTRA>
2.09798

>  <SCORE.INTRA.DIHEDRAL>
5.93714

>  <SCORE.INTRA.DIHEDRAL.0>
6.17317

>  <SCORE.INTRA.POLAR>
0

>  <SCORE.INTRA.POLAR.0>
0

>  <SCORE.INTRA.REPUL>
0

>  <SCORE.INTRA.REPUL.0>
0

>  <SCORE.INTRA.VDW>
-0.870593

>  <SCORE.INTRA.VDW.0>
0.491979

>  <SCORE.INTRA.norm>
0.0999037

>  <SCORE.RESTR>
0

>  <SCORE.RESTR.CAVITY>
0

>  <SCORE.RESTR.norm>
0

>  <SCORE.SYSTEM>
-1.02312

>  <SCORE.SYSTEM.CONST>
0

>  <SCORE.SYSTEM.DIHEDRAL>
0.149131

>  <SCORE.SYSTEM.POLAR>
-0.00520903

>  <SCORE.SYSTEM.VDW>
-1.07998

>  <SCORE.SYSTEM.norm>
-0.04872

>  <SCORE.heavy>
21

>  <SCORE.norm>
-0.971129

$$$$
5281614
  RxDock  02242110563D
librxdock.so/0.1.0
 25 27  0  0  0  0  0  0  0  0999 V2000
  -52.3197   -3.7310   14.7149 O   0  0  0  0  0  0
  -53.4669   -4.4353   18.1464 O   0  0  0  0  0  0
  -51.9669   -2.1112   18.4373 O   0  0  0  0  0  0
  -49.6259   -0.3246   12.7987 O   0  0  0  0  0  0
  -54.0183   -8.9775   16.6274 O   0  0  0  0  0  0
  -55.8308   -8.9535   14.5212 O   0  0  0  0  0  0
  -52.9422   -4.3018   15.8137 C   0  0  0  0  0  0
  -51.4273   -1.9845   16.1450 C   0  0  0  0  0  0
  -51.5846   -2.5886   14.8995 C   0  0  0  0  0  0
  -53.6968   -5.5221   15.4774 C   0  0  0  0  0  0
  -52.8623   -3.8243   17.0692 C   0  0  0  0  0  0
  -52.0741   -2.5931   17.3175 C   0  0  0  0  0  0
  -50.6651   -0.8207   16.2735 C   0  0  0  0  0  0
  -50.9792   -2.0320   13.7725 C   0  0  0  0  0  0
  -53.5027   -6.6889   16.2170 C   0  0  0  0  0  0
  -54.6058   -5.5110   14.4191 C   0  0  0  0  0  0
  -50.2175   -0.8700   13.8967 C   0  0  0  0  0  0
  -50.0610   -0.2657   15.1448 C   0  0  0  0  0  0
  -54.2173   -7.8439   15.8990 C   0  0  0  0  0  0
  -55.3201   -6.6660   14.1008 C   0  0  0  0  0  0
  -55.1259   -7.8324   14.8408 C   0  0  0  0  0  0
  -54.0064   -3.7903   18.6313 H   0  0  0  0  0  0
  -49.3332    0.5778   13.0140 H   0  0  0  0  0  0
  -54.5592   -9.6980   16.2657 H   0  0  0  0  0  0
  -56.4053   -8.7728   13.7597 H   0  0  0  0  0  0
  1  7  1  0  0  0
  1  9  1  0  0  0
  2 11  1  0  0  0
  2 22  1  0  0  0
  3 12  2  0  0  0
  4 17  1  0  0  0
  4 23  1  0  0  0
  5 19  1  0  0  0
  5 24  1  0  0  0
  6 21  1  0  0  0
  6 25  1  0  0  0
  7 10  1  0  0  0
  7 11  2  0  0  0
  8  9  2  0  0  0
  8 12  1  0  0  0
  8 13  1  0  0  0
  9 14  1  0  0  0
 10 15  2  0  0  0
 10 16  1  0  0  0
 11 12  1  0  0  0
 13 18  2  0  0  0
 14 17  2  0  0  0
 15 19  1  0  0  0
 16 20  2  0  0  0
 17 18  1  0  0  0
 19 21  2  0  0  0
 20 21  1  0  0  0
M  END
>  <CHROM.0>
61.81149999,-178.70347105,176.05217178

>  <CHROM.1>
-127.83672899,165.88752667,-177.89375279,-179.39203811,129.50565458,-52.71496042
-4.23882102,15.56262551,-0.04948131,-1.01562045,-1.69493185

>  <Name>
5281614

>  <PUBCHEM_ATOM_DEF_STEREO_COUNT>
0

>  <PUBCHEM_ATOM_UDEF_STEREO_COUNT>
0

>  <PUBCHEM_BOND_DEF_STEREO_COUNT>
0

>  <PUBCHEM_BOND_UDEF_STEREO_COUNT>
0

>  <PUBCHEM_CACTVS_TAUTO_COUNT>
211

>  <PUBCHEM_COMPONENT_COUNT>
1

>  <PUBCHEM_COMPOUND_CID>
5281614

>  <PUBCHEM_CONFORMER_DIVERSEORDER>
1
3
2
4

>  <PUBCHEM_CONFORMER_ID>
0050974E00000001

>  <PUBCHEM_CONFORMER_RMSD>
0.6

>  <PUBCHEM_COORDINATE_TYPE>
2
5
10

>  <PUBCHEM_EFFECTIVE_ROTOR_COUNT>
1

>  <PUBCHEM_FEATURE_SELFOVERLAP>
45.705

>  <PUBCHEM_HEAVY_ATOM_COUNT>
21

>  <PUBCHEM_ISOTOPIC_ATOM_COUNT>
0

>  <PUBCHEM_MMFF94_ENERGY>
63.3231

>  <PUBCHEM_MMFF94_PARTIAL_CHARGES>
31
1 -0.16
10 0.03
11 0.09
12 0.47
13 -0.15
14 -0.15
15 -0.15
16 -0.15
17 0.08
18 -0.15
19 0.08
2 -0.53
20 -0.15
21 0.08
22 0.15
23 0.15
24 0.15
25 0.15
26 0.15
27 0.15
28 0.45
29 0.45
3 -0.57
30 0.45
31 0.45
4 -0.53
5 -0.53
6 -0.53
7 0.05
8 0.09
9 0.08

>  <PUBCHEM_PHARMACOPHORE_FEATURES>
9
1 1 acceptor
1 2 donor
1 3 acceptor
1 4 donor
1 5 donor
1 6 donor
6 1 7 8 9 11 12 rings
6 10 15 16 19 20 21 rings
6 8 9 13 14 17 18 rings

>  <PUBCHEM_SHAPE_FINGERPRINT>
10319926 262 18197191691463025650
11046707 91 18409165524084290187
11370993 144 16916795041429104491
11543360 7 15574712534293567507
11552529 35 14619643787438718685
11796584 16 18053666872396607318
12236239 1 17676205732828356282
12363563 72 18338520845390468915
12553582 1 18335422383079402043
12788726 201 18187641337300532121
13140716 1 18339079393340139273
13288520 33 18410009940308579395
13862211 1 18410289242354007383
14386348 63 17917992754818192534
14790565 3 17763186834971878929
15196674 1 18337951294098693961
15961568 22 18336260267091762604
16752209 62 18261386724325207555
16945 1 18409726227938926049
17138139 8 17532082985083390723
17349148 13 17385719171601143218
17492 89 17907293605117387543
17804303 29 18412823599249003441
1813 80 18412549841927571013
18222031 100 18270677688170113671
19141452 34 17775002427494233167
193927 3 18341338906756936155
19862831 5 17530686498194398818
200 152 16588022381663776488
20028762 73 18057885956073817583
20374829 77 18410572903236631871
20871999 31 18337117786637799036
21033648 29 17131255892312039915
21033650 10 18046089085349049940
21065201 7 18341891827797866298
21267235 1 18335986445693298475
21728266 224 18188759570664201938
2297311 6 18412833473088575574
23175994 123 17346881152422268889
23366157 5 17897725602754440013
23402539 116 18408315575399129671
23557571 272 18272649000812649592
23559900 14 18413386519095611444
3004659 81 18040430018584867655
314173 85 18272092703678835857
335352 9 18409726267052334141
465052 167 18266466588748397503
474 4 17023763350005520324
5104073 3 18341336712149552321
573450 72 18187920621695786632
602551 16 18412824668690624378
67856867 119 18187367683775908276
7364860 26 18126285491440728585
7495541 125 18202279217511116160
77492 1 17531530876096207384
7970288 3 18337387253029349179
9709674 26 18199470952612142918

>  <PUBCHEM_SHAPE_MULTIPOLES>
396.95
10.64
2.28
1.08
3.76
1.07
-0.1
-6.17
-0.53
-2.96
-0.07
1.72
-0.2
0.22

>  <PUBCHEM_SHAPE_SELFOVERLAP>
888.737

>  <PUBCHEM_SHAPE_VOLUME>
209.3

>  <RI>
-5.44169e+08

>  <Rbt.Current_Directory>
/root/miniconda3/envs/rdock/share/rxdock-2013.1.1_148c5bd1-0/data/ligands/prepped_ligands/Fisetin

>  <Rbt.Executable>
rbdock/0.1.0

>  <Rbt.Library>
librxdock.so/0.1.0

>  <Rbt.Parameter_File>
/root/miniconda3/envs/rdock/share/rxdock-2013.1.1_148c5bd1-0/data/scripts/dock.prm

>  <Rbt.Receptor>
def.prm

>  <SCORE>
-19.0816

>  <SCORE.INTER>
-17.1198

>  <SCORE.INTER.CONST>
1

>  <SCORE.INTER.POLAR>
-0.983477

>  <SCORE.INTER.REPUL>
0.00261746

>  <SCORE.INTER.ROT>
1

>  <SCORE.INTER.VDW>
-20.189

>  <SCORE.INTER.norm>
-0.815226

>  <SCORE.INTRA>
-0.894092

>  <SCORE.INTRA.DIHEDRAL>
-0.0400909

>  <SCORE.INTRA.DIHEDRAL.0>
6.17317

>  <SCORE.INTRA.POLAR>
-0.131672

>  <SCORE.INTRA.POLAR.0>
0

>  <SCORE.INTRA.REPUL>
0

>  <SCORE.INTRA.REPUL.0>
0

>  <SCORE.INTRA.VDW>
-0.426361

>  <SCORE.INTRA.VDW.0>
0.491979

>  <SCORE.INTRA.norm>
-0.0425758

>  <SCORE.RESTR>
0

>  <SCORE.RESTR.CAVITY>
0

>  <SCORE.RESTR.norm>
0

>  <SCORE.SYSTEM>
-1.06775

>  <SCORE.SYSTEM.CONST>
0

>  <SCORE.SYSTEM.DIHEDRAL>
0.0567598

>  <SCORE.SYSTEM.VDW>
-1.09613

>  <SCORE.SYSTEM.norm>
-0.0508452

>  <SCORE.heavy>
21

>  <SCORE.norm>
-0.908647

$$$$
5281614
  RxDock  02242110563D
librxdock.so/0.1.0
 25 27  0  0  0  0  0  0  0  0999 V2000
  -51.3040   -1.8525   14.3279 O   0  0  0  0  0  0
  -49.2624    0.2470   16.5666 O   0  0  0  0  0  0
  -50.6472   -1.4047   18.3244 O   0  0  0  0  0  0
  -54.4462   -5.3325   15.0678 O   0  0  0  0  0  0
  -50.5926    2.5186   11.3723 O   0  0  0  0  0  0
  -47.9253    2.0672   10.7370 O   0  0  0  0  0  0
  -50.4017   -0.9186   14.8121 C   0  0  0  0  0  0
  -51.7898   -2.5428   16.6036 C   0  0  0  0  0  0
  -51.9712   -2.6446   15.2261 C   0  0  0  0  0  0
  -49.7562   -0.1352   13.7438 C   0  0  0  0  0  0
  -50.1419   -0.7137   16.1164 C   0  0  0  0  0  0
  -50.8437   -1.5442   17.1246 C   0  0  0  0  0  0
  -52.4986   -3.3765   17.4722 C   0  0  0  0  0  0
  -52.8646   -3.5822   14.7073 C   0  0  0  0  0  0
  -50.4833    0.8341   13.0523 C   0  0  0  0  0  0
  -48.4175   -0.3625   13.4234 C   0  0  0  0  0  0
  -53.5740   -4.4166   15.5712 C   0  0  0  0  0  0
  -53.3912   -4.3138   16.9509 C   0  0  0  0  0  0
  -49.8722    1.5760   12.0414 C   0  0  0  0  0  0
  -47.8065    0.3791   12.4123 C   0  0  0  0  0  0
  -48.5338    1.3484   11.7213 C   0  0  0  0  0  0
  -49.2205    0.2274   17.5361 H   0  0  0  0  0  0
  -54.7298   -5.9251   15.7852 H   0  0  0  0  0  0
  -50.3390    2.5202   10.4353 H   0  0  0  0  0  0
  -48.4508    2.8587   10.5375 H   0  0  0  0  0  0
  1  7  1  0  0  0
  1  9  1  0  0  0
  2 11  1  0  0  0
  2 22  1  0  0  0
  3 12  2  0  0  0
  4 17  1  0  0  0
  4 23  1  0  0  0
  5 19  1  0  0  0
  5 24  1  0  0  0
  6 21  1  0  0  0
  6 25  1  0  0  0
  7 10  1  0  0  0
  7 11  2  0  0  0
  8  9  2  0  0  0
  8 12  1  0  0  0
  8 13  1  0  0  0
  9 14  1  0  0  0
 10 15  2  0  0  0
 10 16  1  0  0  0
 11 12  1  0  0  0
 13 18  2  0  0  0
 14 17  2  0  0  0
 15 19  1  0  0  0
 16 20  2  0  0  0
 17 18  1  0  0  0
 19 21  2  0  0  0
 20 21  1  0  0  0
M  END
>  <CHROM.0>
-179.24972420,60.37091176,56.87633311

>  <CHROM.1>
-179.93973436,170.16294902,-142.35376192,16.72458334,72.51691273,-50.78046349
-1.10435664,14.60275249,2.34929976,0.78128776,1.83483531

>  <Name>
5281614

>  <PUBCHEM_ATOM_DEF_STEREO_COUNT>
0

>  <PUBCHEM_ATOM_UDEF_STEREO_COUNT>
0

>  <PUBCHEM_BOND_DEF_STEREO_COUNT>
0

>  <PUBCHEM_BOND_UDEF_STEREO_COUNT>
0

>  <PUBCHEM_CACTVS_TAUTO_COUNT>
211

>  <PUBCHEM_COMPONENT_COUNT>
1

>  <PUBCHEM_COMPOUND_CID>
5281614

>  <PUBCHEM_CONFORMER_DIVERSEORDER>
1
3
2
4

>  <PUBCHEM_CONFORMER_ID>
0050974E00000001

>  <PUBCHEM_CONFORMER_RMSD>
0.6

>  <PUBCHEM_COORDINATE_TYPE>
2
5
10

>  <PUBCHEM_EFFECTIVE_ROTOR_COUNT>
1

>  <PUBCHEM_FEATURE_SELFOVERLAP>
45.705

>  <PUBCHEM_HEAVY_ATOM_COUNT>
21

>  <PUBCHEM_ISOTOPIC_ATOM_COUNT>
0

>  <PUBCHEM_MMFF94_ENERGY>
63.3231

>  <PUBCHEM_MMFF94_PARTIAL_CHARGES>
31
1 -0.16
10 0.03
11 0.09
12 0.47
13 -0.15
14 -0.15
15 -0.15
16 -0.15
17 0.08
18 -0.15
19 0.08
2 -0.53
20 -0.15
21 0.08
22 0.15
23 0.15
24 0.15
25 0.15
26 0.15
27 0.15
28 0.45
29 0.45
3 -0.57
30 0.45
31 0.45
4 -0.53
5 -0.53
6 -0.53
7 0.05
8 0.09
9 0.08

>  <PUBCHEM_PHARMACOPHORE_FEATURES>
9
1 1 acceptor
1 2 donor
1 3 acceptor
1 4 donor
1 5 donor
1 6 donor
6 1 7 8 9 11 12 rings
6 10 15 16 19 20 21 rings
6 8 9 13 14 17 18 rings

>  <PUBCHEM_SHAPE_FINGERPRINT>
10319926 262 18197191691463025650
11046707 91 18409165524084290187
11370993 144 16916795041429104491
11543360 7 15574712534293567507
11552529 35 14619643787438718685
11796584 16 18053666872396607318
12236239 1 17676205732828356282
12363563 72 18338520845390468915
12553582 1 18335422383079402043
12788726 201 18187641337300532121
13140716 1 18339079393340139273
13288520 33 18410009940308579395
13862211 1 18410289242354007383
14386348 63 17917992754818192534
14790565 3 17763186834971878929
15196674 1 18337951294098693961
15961568 22 18336260267091762604
16752209 62 18261386724325207555
16945 1 18409726227938926049
17138139 8 17532082985083390723
17349148 13 17385719171601143218
17492 89 17907293605117387543
17804303 29 18412823599249003441
1813 80 18412549841927571013
18222031 100 18270677688170113671
19141452 34 17775002427494233167
193927 3 18341338906756936155
19862831 5 17530686498194398818
200 152 16588022381663776488
20028762 73 18057885956073817583
20374829 77 18410572903236631871
20871999 31 18337117786637799036
21033648 29 17131255892312039915
21033650 10 18046089085349049940
21065201 7 18341891827797866298
21267235 1 18335986445693298475
21728266 224 18188759570664201938
2297311 6 18412833473088575574
23175994 123 17346881152422268889
23366157 5 17897725602754440013
23402539 116 18408315575399129671
23557571 272 18272649000812649592
23559900 14 18413386519095611444
3004659 81 18040430018584867655
314173 85 18272092703678835857
335352 9 18409726267052334141
465052 167 18266466588748397503
474 4 17023763350005520324
5104073 3 18341336712149552321
573450 72 18187920621695786632
602551 16 18412824668690624378
67856867 119 18187367683775908276
7364860 26 18126285491440728585
7495541 125 18202279217511116160
77492 1 17531530876096207384
7970288 3 18337387253029349179
9709674 26 18199470952612142918

>  <PUBCHEM_SHAPE_MULTIPOLES>
396.95
10.64
2.28
1.08
3.76
1.07
-0.1
-6.17
-0.53
-2.96
-0.07
1.72
-0.2
0.22

>  <PUBCHEM_SHAPE_SELFOVERLAP>
888.737

>  <PUBCHEM_SHAPE_VOLUME>
209.3

>  <RI>
-5.44169e+08

>  <Rbt.Current_Directory>
/root/miniconda3/envs/rdock/share/rxdock-2013.1.1_148c5bd1-0/data/ligands/prepped_ligands/Fisetin

>  <Rbt.Executable>
rbdock/0.1.0

>  <Rbt.Library>
librxdock.so/0.1.0

>  <Rbt.Parameter_File>
/root/miniconda3/envs/rdock/share/rxdock-2013.1.1_148c5bd1-0/data/scripts/dock.prm

>  <Rbt.Receptor>
def.prm

>  <SCORE>
-20.0944

>  <SCORE.INTER>
-18.6739

>  <SCORE.INTER.CONST>
1

>  <SCORE.INTER.POLAR>
-0.959166

>  <SCORE.INTER.REPUL>
0.000916088

>  <SCORE.INTER.ROT>
1

>  <SCORE.INTER.VDW>
-21.8173

>  <SCORE.INTER.norm>
-0.889234

>  <SCORE.INTRA>
-0.452647

>  <SCORE.INTRA.DIHEDRAL>
0.545168

>  <SCORE.INTRA.DIHEDRAL.0>
6.17317

>  <SCORE.INTRA.POLAR>
0

>  <SCORE.INTRA.POLAR.0>
0

>  <SCORE.INTRA.REPUL>
0

>  <SCORE.INTRA.REPUL.0>
0

>  <SCORE.INTRA.VDW>
-0.725231

>  <SCORE.INTRA.VDW.0>
0.491979

>  <SCORE.INTRA.norm>
-0.0215546

>  <SCORE.RESTR>
0

>  <SCORE.RESTR.CAVITY>
0

>  <SCORE.RESTR.norm>
0

>  <SCORE.SYSTEM>
-0.967839

>  <SCORE.SYSTEM.CONST>
0

>  <SCORE.SYSTEM.DIHEDRAL>
0.0282706

>  <SCORE.SYSTEM.VDW>
-0.981974

>  <SCORE.SYSTEM.norm>
-0.0460876

>  <SCORE.heavy>
21

>  <SCORE.norm>
-0.956877

$$$$
5281614
  RxDock  02242110563D
librxdock.so/0.1.0
 25 27  0  0  0  0  0  0  0  0999 V2000
  -51.9821   -4.0269   14.7870 O   0  0  0  0  0  0
  -53.9693   -4.0656   17.8914 O   0  0  0  0  0  0
  -52.3504   -1.8245   18.1955 O   0  0  0  0  0  0
  -48.5802   -1.1705   13.1137 O   0  0  0  0  0  0
  -54.0918   -8.9985   16.6494 O   0  0  0  0  0  0
  -55.8664   -8.9752   14.5113 O   0  0  0  0  0  0
  -52.9003   -4.3629   15.7692 C   0  0  0  0  0  0
  -51.2773   -2.1225   16.1167 C   0  0  0  0  0  0
  -51.1983   -2.9181   14.9757 C   0  0  0  0  0  0
  -53.6753   -5.5729   15.4420 C   0  0  0  0  0  0
  -53.0694   -3.6853   16.9194 C   0  0  0  0  0  0
  -52.2401   -2.4816   17.1691 C   0  0  0  0  0  0
  -50.4518   -1.0039   16.2554 C   0  0  0  0  0  0
  -50.2915   -2.5998   13.9644 C   0  0  0  0  0  0
  -53.5194   -6.7295   16.2063 C   0  0  0  0  0  0
  -54.5653   -5.5622   14.3677 C   0  0  0  0  0  0
  -49.4658   -1.4836   14.0990 C   0  0  0  0  0  0
  -49.5460   -0.6873   15.2423 C   0  0  0  0  0  0
  -54.2533   -7.8747   15.8969 C   0  0  0  0  0  0
  -55.2989   -6.7074   14.0581 C   0  0  0  0  0  0
  -55.1430   -7.8637   14.8227 C   0  0  0  0  0  0
  -54.2359   -3.2926   18.4145 H   0  0  0  0  0  0
  -48.9202   -1.5058   12.2662 H   0  0  0  0  0  0
  -54.0628   -9.7780   16.0715 H   0  0  0  0  0  0
  -55.5950   -9.7125   15.0815 H   0  0  0  0  0  0
  1  7  1  0  0  0
  1  9  1  0  0  0
  2 11  1  0  0  0
  2 22  1  0  0  0
  3 12  2  0  0  0
  4 17  1  0  0  0
  4 23  1  0  0  0
  5 19  1  0  0  0
  5 24  1  0  0  0
  6 21  1  0  0  0
  6 25  1  0  0  0
  7 10  1  0  0  0
  7 11  2  0  0  0
  8  9  2  0  0  0
  8 12  1  0  0  0
  8 13  1  0  0  0
  9 14  1  0  0  0
 10 15  2  0  0  0
 10 16  1  0  0  0
 11 12  1  0  0  0
 13 18  2  0  0  0
 14 17  2  0  0  0
 15 19  1  0  0  0
 16 20  2  0  0  0
 17 18  1  0  0  0
 19 21  2  0  0  0
 20 21  1  0  0  0
M  END
>  <CHROM.0>
-178.17469591,-178.22313290,-156.49894222

>  <CHROM.1>
-154.40448559,27.28453470,-138.06435007,-4.80190781,113.67191054,-52.58274425
-4.37904957,15.55911558,-0.44866104,-0.84984442,-2.18909019

>  <Name>
5281614

>  <PUBCHEM_ATOM_DEF_STEREO_COUNT>
0

>  <PUBCHEM_ATOM_UDEF_STEREO_COUNT>
0

>  <PUBCHEM_BOND_DEF_STEREO_COUNT>
0

>  <PUBCHEM_BOND_UDEF_STEREO_COUNT>
0

>  <PUBCHEM_CACTVS_TAUTO_COUNT>
211

>  <PUBCHEM_COMPONENT_COUNT>
1

>  <PUBCHEM_COMPOUND_CID>
5281614

>  <PUBCHEM_CONFORMER_DIVERSEORDER>
1
3
2
4

>  <PUBCHEM_CONFORMER_ID>
0050974E00000001

>  <PUBCHEM_CONFORMER_RMSD>
0.6

>  <PUBCHEM_COORDINATE_TYPE>
2
5
10

>  <PUBCHEM_EFFECTIVE_ROTOR_COUNT>
1

>  <PUBCHEM_FEATURE_SELFOVERLAP>
45.705

>  <PUBCHEM_HEAVY_ATOM_COUNT>
21

>  <PUBCHEM_ISOTOPIC_ATOM_COUNT>
0

>  <PUBCHEM_MMFF94_ENERGY>
63.3231

>  <PUBCHEM_MMFF94_PARTIAL_CHARGES>
31
1 -0.16
10 0.03
11 0.09
12 0.47
13 -0.15
14 -0.15
15 -0.15
16 -0.15
17 0.08
18 -0.15
19 0.08
2 -0.53
20 -0.15
21 0.08
22 0.15
23 0.15
24 0.15
25 0.15
26 0.15
27 0.15
28 0.45
29 0.45
3 -0.57
30 0.45
31 0.45
4 -0.53
5 -0.53
6 -0.53
7 0.05
8 0.09
9 0.08

>  <PUBCHEM_PHARMACOPHORE_FEATURES>
9
1 1 acceptor
1 2 donor
1 3 acceptor
1 4 donor
1 5 donor
1 6 donor
6 1 7 8 9 11 12 rings
6 10 15 16 19 20 21 rings
6 8 9 13 14 17 18 rings

>  <PUBCHEM_SHAPE_FINGERPRINT>
10319926 262 18197191691463025650
11046707 91 18409165524084290187
11370993 144 16916795041429104491
11543360 7 15574712534293567507
11552529 35 14619643787438718685
11796584 16 18053666872396607318
12236239 1 17676205732828356282
12363563 72 18338520845390468915
12553582 1 18335422383079402043
12788726 201 18187641337300532121
13140716 1 18339079393340139273
13288520 33 18410009940308579395
13862211 1 18410289242354007383
14386348 63 17917992754818192534
14790565 3 17763186834971878929
15196674 1 18337951294098693961
15961568 22 18336260267091762604
16752209 62 18261386724325207555
16945 1 18409726227938926049
17138139 8 17532082985083390723
17349148 13 17385719171601143218
17492 89 17907293605117387543
17804303 29 18412823599249003441
1813 80 18412549841927571013
18222031 100 18270677688170113671
19141452 34 17775002427494233167
193927 3 18341338906756936155
19862831 5 17530686498194398818
200 152 16588022381663776488
20028762 73 18057885956073817583
20374829 77 18410572903236631871
20871999 31 18337117786637799036
21033648 29 17131255892312039915
21033650 10 18046089085349049940
21065201 7 18341891827797866298
21267235 1 18335986445693298475
21728266 224 18188759570664201938
2297311 6 18412833473088575574
23175994 123 17346881152422268889
23366157 5 17897725602754440013
23402539 116 18408315575399129671
23557571 272 18272649000812649592
23559900 14 18413386519095611444
3004659 81 18040430018584867655
314173 85 18272092703678835857
335352 9 18409726267052334141
465052 167 18266466588748397503
474 4 17023763350005520324
5104073 3 18341336712149552321
573450 72 18187920621695786632
602551 16 18412824668690624378
67856867 119 18187367683775908276
7364860 26 18126285491440728585
7495541 125 18202279217511116160
77492 1 17531530876096207384
7970288 3 18337387253029349179
9709674 26 18199470952612142918

>  <PUBCHEM_SHAPE_MULTIPOLES>
396.95
10.64
2.28
1.08
3.76
1.07
-0.1
-6.17
-0.53
-2.96
-0.07
1.72
-0.2
0.22

>  <PUBCHEM_SHAPE_SELFOVERLAP>
888.737

>  <PUBCHEM_SHAPE_VOLUME>
209.3

>  <RI>
-5.44169e+08

>  <Rbt.Current_Directory>
/root/miniconda3/envs/rdock/share/rxdock-2013.1.1_148c5bd1-0/data/ligands/prepped_ligands/Fisetin

>  <Rbt.Executable>
rbdock/0.1.0

>  <Rbt.Library>
librxdock.so/0.1.0

>  <Rbt.Parameter_File>
/root/miniconda3/envs/rdock/share/rxdock-2013.1.1_148c5bd1-0/data/scripts/dock.prm

>  <Rbt.Receptor>
def.prm

>  <SCORE>
-19.394

>  <SCORE.INTER>
-19.6024

>  <SCORE.INTER.CONST>
1

>  <SCORE.INTER.POLAR>
-2.58882

>  <SCORE.INTER.REPUL>
0.320414

>  <SCORE.INTER.ROT>
1

>  <SCORE.INTER.VDW>
-18.8025

>  <SCORE.INTER.norm>
-0.933449

>  <SCORE.INTRA>
0.499028

>  <SCORE.INTRA.DIHEDRAL>
1.92456

>  <SCORE.INTRA.DIHEDRAL.0>
6.17317

>  <SCORE.INTRA.POLAR>
0

>  <SCORE.INTRA.POLAR.0>
0

>  <SCORE.INTRA.REPUL>
0

>  <SCORE.INTRA.REPUL.0>
0

>  <SCORE.INTRA.VDW>
-0.463252

>  <SCORE.INTRA.VDW.0>
0.491979

>  <SCORE.INTRA.norm>
0.0237632

>  <SCORE.RESTR>
0

>  <SCORE.RESTR.CAVITY>
0

>  <SCORE.RESTR.norm>
0

>  <SCORE.SYSTEM>
-0.290614

>  <SCORE.SYSTEM.CONST>
0

>  <SCORE.SYSTEM.DIHEDRAL>
1.20712

>  <SCORE.SYSTEM.POLAR>
-0.0167618

>  <SCORE.SYSTEM.VDW>
-0.837184

>  <SCORE.SYSTEM.norm>
-0.0138387

>  <SCORE.heavy>
21

>  <SCORE.norm>
-0.923524

$$$$
5281614
  RxDock  02242110563D
librxdock.so/0.1.0
 25 27  0  0  0  0  0  0  0  0999 V2000
  -50.7860   -4.4061   15.9043 O   0  0  0  0  0  0
  -53.0948   -3.4239   18.6048 O   0  0  0  0  0  0
  -50.8896   -1.7802   19.0185 O   0  0  0  0  0  0
  -46.4330   -2.9934   14.6444 O   0  0  0  0  0  0
  -53.7438   -8.8101   16.6558 O   0  0  0  0  0  0
  -56.0050   -7.8854   15.3316 O   0  0  0  0  0  0
  -51.8932   -4.3098   16.7323 C   0  0  0  0  0  0
  -49.6905   -2.6625   17.1894 C   0  0  0  0  0  0
  -49.7164   -3.5826   16.1436 C   0  0  0  0  0  0
  -52.9682   -5.2491   16.3663 C   0  0  0  0  0  0
  -51.9915   -3.4716   17.7803 C   0  0  0  0  0  0
  -50.8570   -2.5651   18.0802 C   0  0  0  0  0  0
  -48.5717   -1.8492   17.3861 C   0  0  0  0  0  0
  -48.6215   -3.6957   15.2864 C   0  0  0  0  0  0
  -52.8516   -6.6021   16.6858 C   0  0  0  0  0  0
  -54.1030   -4.7856   15.7002 C   0  0  0  0  0  0
  -47.5027   -2.8854   15.4794 C   0  0  0  0  0  0
  -47.4781   -1.9639   16.5271 C   0  0  0  0  0  0
  -53.8693   -7.4912   16.3398 C   0  0  0  0  0  0
  -55.1205   -5.6747   15.3539 C   0  0  0  0  0  0
  -55.0037   -7.0274   15.6737 C   0  0  0  0  0  0
  -53.7464   -4.0856   18.3223 H   0  0  0  0  0  0
  -46.6425   -2.5492   13.8047 H   0  0  0  0  0  0
  -52.8171   -9.0830   16.5594 H   0  0  0  0  0  0
  -55.7444   -8.7952   15.5481 H   0  0  0  0  0  0
  1  7  1  0  0  0
  1  9  1  0  0  0
  2 11  1  0  0  0
  2 22  1  0  0  0
  3 12  2  0  0  0
  4 17  1  0  0  0
  4 23  1  0  0  0
  5 19  1  0  0  0
  5 24  1  0  0  0
  6 21  1  0  0  0
  6 25  1  0  0  0
  7 10  1  0  0  0
  7 11  2  0  0  0
  8  9  2  0  0  0
  8 12  1  0  0  0
  8 13  1  0  0  0
  9 14  1  0  0  0
 10 15  2  0  0  0
 10 16  1  0  0  0
 11 12  1  0  0  0
 13 18  2  0  0  0
 14 17  2  0  0  0
 15 19  1  0  0  0
 16 20  2  0  0  0
 17 18  1  0  0  0
 19 21  2  0  0  0
 20 21  1  0  0  0
M  END
>  <CHROM.0>
-178.88084380,178.33318222,-60.46594767

>  <CHROM.1>
1.35818276,76.69580987,-36.50457297,-5.08555400,76.02891410,-51.51668028
-4.48831067,16.51879375,-0.48948413,-0.40840127,-2.42840293

>  <Name>
5281614

>  <PUBCHEM_ATOM_DEF_STEREO_COUNT>
0

>  <PUBCHEM_ATOM_UDEF_STEREO_COUNT>
0

>  <PUBCHEM_BOND_DEF_STEREO_COUNT>
0

>  <PUBCHEM_BOND_UDEF_STEREO_COUNT>
0

>  <PUBCHEM_CACTVS_TAUTO_COUNT>
211

>  <PUBCHEM_COMPONENT_COUNT>
1

>  <PUBCHEM_COMPOUND_CID>
5281614

>  <PUBCHEM_CONFORMER_DIVERSEORDER>
1
3
2
4

>  <PUBCHEM_CONFORMER_ID>
0050974E00000001

>  <PUBCHEM_CONFORMER_RMSD>
0.6

>  <PUBCHEM_COORDINATE_TYPE>
2
5
10

>  <PUBCHEM_EFFECTIVE_ROTOR_COUNT>
1

>  <PUBCHEM_FEATURE_SELFOVERLAP>
45.705

>  <PUBCHEM_HEAVY_ATOM_COUNT>
21

>  <PUBCHEM_ISOTOPIC_ATOM_COUNT>
0

>  <PUBCHEM_MMFF94_ENERGY>
63.3231

>  <PUBCHEM_MMFF94_PARTIAL_CHARGES>
31
1 -0.16
10 0.03
11 0.09
12 0.47
13 -0.15
14 -0.15
15 -0.15
16 -0.15
17 0.08
18 -0.15
19 0.08
2 -0.53
20 -0.15
21 0.08
22 0.15
23 0.15
24 0.15
25 0.15
26 0.15
27 0.15
28 0.45
29 0.45
3 -0.57
30 0.45
31 0.45
4 -0.53
5 -0.53
6 -0.53
7 0.05
8 0.09
9 0.08

>  <PUBCHEM_PHARMACOPHORE_FEATURES>
9
1 1 acceptor
1 2 donor
1 3 acceptor
1 4 donor
1 5 donor
1 6 donor
6 1 7 8 9 11 12 rings
6 10 15 16 19 20 21 rings
6 8 9 13 14 17 18 rings

>  <PUBCHEM_SHAPE_FINGERPRINT>
10319926 262 18197191691463025650
11046707 91 18409165524084290187
11370993 144 16916795041429104491
11543360 7 15574712534293567507
11552529 35 14619643787438718685
11796584 16 18053666872396607318
12236239 1 17676205732828356282
12363563 72 18338520845390468915
12553582 1 18335422383079402043
12788726 201 18187641337300532121
13140716 1 18339079393340139273
13288520 33 18410009940308579395
13862211 1 18410289242354007383
14386348 63 17917992754818192534
14790565 3 17763186834971878929
15196674 1 18337951294098693961
15961568 22 18336260267091762604
16752209 62 18261386724325207555
16945 1 18409726227938926049
17138139 8 17532082985083390723
17349148 13 17385719171601143218
17492 89 17907293605117387543
17804303 29 18412823599249003441
1813 80 18412549841927571013
18222031 100 18270677688170113671
19141452 34 17775002427494233167
193927 3 18341338906756936155
19862831 5 17530686498194398818
200 152 16588022381663776488
20028762 73 18057885956073817583
20374829 77 18410572903236631871
20871999 31 18337117786637799036
21033648 29 17131255892312039915
21033650 10 18046089085349049940
21065201 7 18341891827797866298
21267235 1 18335986445693298475
21728266 224 18188759570664201938
2297311 6 18412833473088575574
23175994 123 17346881152422268889
23366157 5 17897725602754440013
23402539 116 18408315575399129671
23557571 272 18272649000812649592
23559900 14 18413386519095611444
3004659 81 18040430018584867655
314173 85 18272092703678835857
335352 9 18409726267052334141
465052 167 18266466588748397503
474 4 17023763350005520324
5104073 3 18341336712149552321
573450 72 18187920621695786632
602551 16 18412824668690624378
67856867 119 18187367683775908276
7364860 26 18126285491440728585
7495541 125 18202279217511116160
77492 1 17531530876096207384
7970288 3 18337387253029349179
9709674 26 18199470952612142918

>  <PUBCHEM_SHAPE_MULTIPOLES>
396.95
10.64
2.28
1.08
3.76
1.07
-0.1
-6.17
-0.53
-2.96
-0.07
1.72
-0.2
0.22

>  <PUBCHEM_SHAPE_SELFOVERLAP>
888.737

>  <PUBCHEM_SHAPE_VOLUME>
209.3

>  <RI>
-5.44169e+08

>  <Rbt.Current_Directory>
/root/miniconda3/envs/rdock/share/rxdock-2013.1.1_148c5bd1-0/data/ligands/prepped_ligands/Fisetin

>  <Rbt.Executable>
rbdock/0.1.0

>  <Rbt.Library>
librxdock.so/0.1.0

>  <Rbt.Parameter_File>
/root/miniconda3/envs/rdock/share/rxdock-2013.1.1_148c5bd1-0/data/scripts/dock.prm

>  <Rbt.Receptor>
def.prm

>  <SCORE>
-14.3418

>  <SCORE.INTER>
-14.018

>  <SCORE.INTER.CONST>
1

>  <SCORE.INTER.POLAR>
-1.61236

>  <SCORE.INTER.REPUL>
0.00619259

>  <SCORE.INTER.ROT>
1

>  <SCORE.INTER.VDW>
-14.9669

>  <SCORE.INTER.norm>
-0.667523

>  <SCORE.INTRA>
0.749752

>  <SCORE.INTRA.DIHEDRAL>
4.65704

>  <SCORE.INTRA.DIHEDRAL.0>
6.17317

>  <SCORE.INTRA.POLAR>
-0.0982957

>  <SCORE.INTRA.POLAR.0>
0

>  <SCORE.INTRA.REPUL>
0

>  <SCORE.INTRA.REPUL.0>
0

>  <SCORE.INTRA.VDW>
-1.24456

>  <SCORE.INTRA.VDW.0>
0.491979

>  <SCORE.INTRA.norm>
0.0357025

>  <SCORE.RESTR>
0

>  <SCORE.RESTR.CAVITY>
0

>  <SCORE.RESTR.norm>
0

>  <SCORE.SYSTEM>
-1.07359

>  <SCORE.SYSTEM.CONST>
0

>  <SCORE.SYSTEM.DIHEDRAL>
0.0170809

>  <SCORE.SYSTEM.VDW>
-1.08213

>  <SCORE.SYSTEM.norm>
-0.0511234

>  <SCORE.heavy>
21

>  <SCORE.norm>
-0.682944

$$$$
5281614
  RxDock  02242110563D
librxdock.so/0.1.0
 25 27  0  0  0  0  0  0  0  0999 V2000
  -49.5276   -4.9175   16.3370 O   0  0  0  0  0  0
  -52.1743   -2.4126   16.8926 O   0  0  0  0  0  0
  -53.0604   -4.6131   18.3446 O   0  0  0  0  0  0
  -48.9005   -9.3934   17.7877 O   0  0  0  0  0  0
  -46.3182   -1.4734   14.6180 O   0  0  0  0  0  0
  -47.9192    0.3107   13.2125 O   0  0  0  0  0  0
  -50.2694   -3.7469   16.3217 C   0  0  0  0  0  0
  -51.1985   -5.9412   17.7693 C   0  0  0  0  0  0
  -50.0001   -5.9821   17.0599 C   0  0  0  0  0  0
  -49.6506   -2.6848   15.5086 C   0  0  0  0  0  0
  -51.4447   -3.5801   16.9552 C   0  0  0  0  0  0
  -51.9972   -4.7063   17.7459 C   0  0  0  0  0  0
  -51.6313   -7.0583   18.4882 C   0  0  0  0  0  0
  -49.2256   -7.1425   17.0645 C   0  0  0  0  0  0
  -48.2614   -2.5757   15.4432 C   0  0  0  0  0  0
  -50.4540   -1.7880   14.8039 C   0  0  0  0  0  0
  -49.6542   -8.2598   17.7813 C   0  0  0  0  0  0
  -50.8546   -8.2175   18.4917 C   0  0  0  0  0  0
  -47.6756   -1.5708   14.6732 C   0  0  0  0  0  0
  -49.8683   -0.7828   14.0343 C   0  0  0  0  0  0
  -48.4792   -0.6743   13.9689 C   0  0  0  0  0  0
  -53.0099   -2.5197   17.3746 H   0  0  0  0  0  0
  -48.1398   -9.2694   17.1941 H   0  0  0  0  0  0
  -46.0422   -1.2562   13.7130 H   0  0  0  0  0  0
  -47.0816   -0.0030   12.8350 H   0  0  0  0  0  0
  1  7  1  0  0  0
  1  9  1  0  0  0
  2 11  1  0  0  0
  2 22  1  0  0  0
  3 12  2  0  0  0
  4 17  1  0  0  0
  4 23  1  0  0  0
  5 19  1  0  0  0
  5 24  1  0  0  0
  6 21  1  0  0  0
  6 25  1  0  0  0
  7 10  1  0  0  0
  7 11  2  0  0  0
  8  9  2  0  0  0
  8 12  1  0  0  0
  8 13  1  0  0  0
  9 14  1  0  0  0
 10 15  2  0  0  0
 10 16  1  0  0  0
 11 12  1  0  0  0
 13 18  2  0  0  0
 14 17  2  0  0  0
 15 19  1  0  0  0
 16 20  2  0  0  0
 17 18  1  0  0  0
 19 21  2  0  0  0
 20 21  1  0  0  0
M  END
>  <CHROM.0>
178.12899929,-64.66151628,54.64704116

>  <CHROM.1>
176.71103551,-4.11229246,140.15516105,33.04565591,-33.91378900,-49.89138655
-4.11595396,16.32105580,-1.88659980,0.39245657,-0.40021104

>  <Name>
5281614

>  <PUBCHEM_ATOM_DEF_STEREO_COUNT>
0

>  <PUBCHEM_ATOM_UDEF_STEREO_COUNT>
0

>  <PUBCHEM_BOND_DEF_STEREO_COUNT>
0

>  <PUBCHEM_BOND_UDEF_STEREO_COUNT>
0

>  <PUBCHEM_CACTVS_TAUTO_COUNT>
211

>  <PUBCHEM_COMPONENT_COUNT>
1

>  <PUBCHEM_COMPOUND_CID>
5281614

>  <PUBCHEM_CONFORMER_DIVERSEORDER>
1
3
2
4

>  <PUBCHEM_CONFORMER_ID>
0050974E00000001

>  <PUBCHEM_CONFORMER_RMSD>
0.6

>  <PUBCHEM_COORDINATE_TYPE>
2
5
10

>  <PUBCHEM_EFFECTIVE_ROTOR_COUNT>
1

>  <PUBCHEM_FEATURE_SELFOVERLAP>
45.705

>  <PUBCHEM_HEAVY_ATOM_COUNT>
21

>  <PUBCHEM_ISOTOPIC_ATOM_COUNT>
0

>  <PUBCHEM_MMFF94_ENERGY>
63.3231

>  <PUBCHEM_MMFF94_PARTIAL_CHARGES>
31
1 -0.16
10 0.03
11 0.09
12 0.47
13 -0.15
14 -0.15
15 -0.15
16 -0.15
17 0.08
18 -0.15
19 0.08
2 -0.53
20 -0.15
21 0.08
22 0.15
23 0.15
24 0.15
25 0.15
26 0.15
27 0.15
28 0.45
29 0.45
3 -0.57
30 0.45
31 0.45
4 -0.53
5 -0.53
6 -0.53
7 0.05
8 0.09
9 0.08

>  <PUBCHEM_PHARMACOPHORE_FEATURES>
9
1 1 acceptor
1 2 donor
1 3 acceptor
1 4 donor
1 5 donor
1 6 donor
6 1 7 8 9 11 12 rings
6 10 15 16 19 20 21 rings
6 8 9 13 14 17 18 rings

>  <PUBCHEM_SHAPE_FINGERPRINT>
10319926 262 18197191691463025650
11046707 91 18409165524084290187
11370993 144 16916795041429104491
11543360 7 15574712534293567507
11552529 35 14619643787438718685
11796584 16 18053666872396607318
12236239 1 17676205732828356282
12363563 72 18338520845390468915
12553582 1 18335422383079402043
12788726 201 18187641337300532121
13140716 1 18339079393340139273
13288520 33 18410009940308579395
13862211 1 18410289242354007383
14386348 63 17917992754818192534
14790565 3 17763186834971878929
15196674 1 18337951294098693961
15961568 22 18336260267091762604
16752209 62 18261386724325207555
16945 1 18409726227938926049
17138139 8 17532082985083390723
17349148 13 17385719171601143218
17492 89 17907293605117387543
17804303 29 18412823599249003441
1813 80 18412549841927571013
18222031 100 18270677688170113671
19141452 34 17775002427494233167
193927 3 18341338906756936155
19862831 5 17530686498194398818
200 152 16588022381663776488
20028762 73 18057885956073817583
20374829 77 18410572903236631871
20871999 31 18337117786637799036
21033648 29 17131255892312039915
21033650 10 18046089085349049940
21065201 7 18341891827797866298
21267235 1 18335986445693298475
21728266 224 18188759570664201938
2297311 6 18412833473088575574
23175994 123 17346881152422268889
23366157 5 17897725602754440013
23402539 116 18408315575399129671
23557571 272 18272649000812649592
23559900 14 18413386519095611444
3004659 81 18040430018584867655
314173 85 18272092703678835857
335352 9 18409726267052334141
465052 167 18266466588748397503
474 4 17023763350005520324
5104073 3 18341336712149552321
573450 72 18187920621695786632
602551 16 18412824668690624378
67856867 119 18187367683775908276
7364860 26 18126285491440728585
7495541 125 18202279217511116160
77492 1 17531530876096207384
7970288 3 18337387253029349179
9709674 26 18199470952612142918

>  <PUBCHEM_SHAPE_MULTIPOLES>
396.95
10.64
2.28
1.08
3.76
1.07
-0.1
-6.17
-0.53
-2.96
-0.07
1.72
-0.2
0.22

>  <PUBCHEM_SHAPE_SELFOVERLAP>
888.737

>  <PUBCHEM_SHAPE_VOLUME>
209.3

>  <RI>
-5.44169e+08

>  <Rbt.Current_Directory>
/root/miniconda3/envs/rdock/share/rxdock-2013.1.1_148c5bd1-0/data/ligands/prepped_ligands/Fisetin

>  <Rbt.Executable>
rbdock/0.1.0

>  <Rbt.Library>
librxdock.so/0.1.0

>  <Rbt.Parameter_File>
/root/miniconda3/envs/rdock/share/rxdock-2013.1.1_148c5bd1-0/data/scripts/dock.prm

>  <Rbt.Receptor>
def.prm

>  <SCORE>
-20.5116

>  <SCORE.INTER>
-19.3083

>  <SCORE.INTER.CONST>
1

>  <SCORE.INTER.POLAR>
-3.28627

>  <SCORE.INTER.REPUL>
0.0357602

>  <SCORE.INTER.ROT>
1

>  <SCORE.INTER.VDW>
-14.7138

>  <SCORE.INTER.norm>
-0.919442

>  <SCORE.INTRA>
-0.192829

>  <SCORE.INTRA.DIHEDRAL>
-1.27814

>  <SCORE.INTRA.DIHEDRAL.0>
6.17317

>  <SCORE.INTRA.POLAR>
0

>  <SCORE.INTRA.POLAR.0>
0

>  <SCORE.INTRA.REPUL>
0

>  <SCORE.INTRA.REPUL.0>
0

>  <SCORE.INTRA.VDW>
0.446241

>  <SCORE.INTRA.VDW.0>
0.491979

>  <SCORE.INTRA.norm>
-0.00918233

>  <SCORE.RESTR>
0

>  <SCORE.RESTR.CAVITY>
0

>  <SCORE.RESTR.norm>
0

>  <SCORE.SYSTEM>
-1.01052

>  <SCORE.SYSTEM.CONST>
0

>  <SCORE.SYSTEM.DIHEDRAL>
0.191457

>  <SCORE.SYSTEM.VDW>
-1.10625

>  <SCORE.SYSTEM.norm>
-0.0481202

>  <SCORE.heavy>
21

>  <SCORE.norm>
-0.976745

$$$$
5281614
  RxDock  02242110563D
librxdock.so/0.1.0
 25 27  0  0  0  0  0  0  0  0999 V2000
  -52.4426   -3.9117   16.7701 O   0  0  0  0  0  0
  -52.6310   -6.5772   19.3093 O   0  0  0  0  0  0
  -51.1230   -4.6046   20.5625 O   0  0  0  0  0  0
  -50.3780    0.3611   16.6569 O   0  0  0  0  0  0
  -53.9955   -9.6156   16.1655 O   0  0  0  0  0  0
  -55.8422   -8.6215   14.3425 O   0  0  0  0  0  0
  -52.7466   -5.0874   17.4379 C   0  0  0  0  0  0
  -51.2135   -3.1405   18.7159 C   0  0  0  0  0  0
  -51.6925   -2.9656   17.4194 C   0  0  0  0  0  0
  -53.5555   -6.0158   16.6282 C   0  0  0  0  0  0
  -52.3388   -5.3835   18.6855 C   0  0  0  0  0  0
  -51.5210   -4.3919   19.4250 C   0  0  0  0  0  0
  -50.4521   -2.1415   19.3276 C   0  0  0  0  0  0
  -51.4123   -1.7885   16.7248 C   0  0  0  0  0  0
  -53.3955   -7.3936   16.7777 C   0  0  0  0  0  0
  -54.4817   -5.5173   15.7118 C   0  0  0  0  0  0
  -50.6527   -0.7886   17.3322 C   0  0  0  0  0  0
  -50.1738   -0.9649   18.6310 C   0  0  0  0  0  0
  -54.1614   -8.2725   16.0117 C   0  0  0  0  0  0
  -55.2474   -6.3960   14.9454 C   0  0  0  0  0  0
  -55.0873   -7.7736   15.0955 C   0  0  0  0  0  0
  -52.3232   -6.5524   20.2295 H   0  0  0  0  0  0
  -49.7383    0.8833   17.1711 H   0  0  0  0  0  0
  -54.6680  -10.0895   15.6501 H   0  0  0  0  0  0
  -56.4962   -8.1143   13.8351 H   0  0  0  0  0  0
  1  7  1  0  0  0
  1  9  1  0  0  0
  2 11  1  0  0  0
  2 22  1  0  0  0
  3 12  2  0  0  0
  4 17  1  0  0  0
  4 23  1  0  0  0
  5 19  1  0  0  0
  5 24  1  0  0  0
  6 21  1  0  0  0
  6 25  1  0  0  0
  7 10  1  0  0  0
  7 11  2  0  0  0
  8  9  2  0  0  0
  8 12  1  0  0  0
  8 13  1  0  0  0
  9 14  1  0  0  0
 10 15  2  0  0  0
 10 16  1  0  0  0
 11 12  1  0  0  0
 13 18  2  0  0  0
 14 17  2  0  0  0
 15 19  1  0  0  0
 16 20  2  0  0  0
 17 18  1  0  0  0
 19 21  2  0  0  0
 20 21  1  0  0  0
M  END
>  <CHROM.0>
179.26269673,-175.31127087,65.46719865

>  <CHROM.1>
-174.27929761,-171.80631775,173.09049335,173.80067841,147.07214453,-52.61739126
-4.86636800,17.25985908,0.44642786,-0.98780160,-0.67954062

>  <Name>
5281614

>  <PUBCHEM_ATOM_DEF_STEREO_COUNT>
0

>  <PUBCHEM_ATOM_UDEF_STEREO_COUNT>
0

>  <PUBCHEM_BOND_DEF_STEREO_COUNT>
0

>  <PUBCHEM_BOND_UDEF_STEREO_COUNT>
0

>  <PUBCHEM_CACTVS_TAUTO_COUNT>
211

>  <PUBCHEM_COMPONENT_COUNT>
1

>  <PUBCHEM_COMPOUND_CID>
5281614

>  <PUBCHEM_CONFORMER_DIVERSEORDER>
1
3
2
4

>  <PUBCHEM_CONFORMER_ID>
0050974E00000001

>  <PUBCHEM_CONFORMER_RMSD>
0.6

>  <PUBCHEM_COORDINATE_TYPE>
2
5
10

>  <PUBCHEM_EFFECTIVE_ROTOR_COUNT>
1

>  <PUBCHEM_FEATURE_SELFOVERLAP>
45.705

>  <PUBCHEM_HEAVY_ATOM_COUNT>
21

>  <PUBCHEM_ISOTOPIC_ATOM_COUNT>
0

>  <PUBCHEM_MMFF94_ENERGY>
63.3231

>  <PUBCHEM_MMFF94_PARTIAL_CHARGES>
31
1 -0.16
10 0.03
11 0.09
12 0.47
13 -0.15
14 -0.15
15 -0.15
16 -0.15
17 0.08
18 -0.15
19 0.08
2 -0.53
20 -0.15
21 0.08
22 0.15
23 0.15
24 0.15
25 0.15
26 0.15
27 0.15
28 0.45
29 0.45
3 -0.57
30 0.45
31 0.45
4 -0.53
5 -0.53
6 -0.53
7 0.05
8 0.09
9 0.08

>  <PUBCHEM_PHARMACOPHORE_FEATURES>
9
1 1 acceptor
1 2 donor
1 3 acceptor
1 4 donor
1 5 donor
1 6 donor
6 1 7 8 9 11 12 rings
6 10 15 16 19 20 21 rings
6 8 9 13 14 17 18 rings

>  <PUBCHEM_SHAPE_FINGERPRINT>
10319926 262 18197191691463025650
11046707 91 18409165524084290187
11370993 144 16916795041429104491
11543360 7 15574712534293567507
11552529 35 14619643787438718685
11796584 16 18053666872396607318
12236239 1 17676205732828356282
12363563 72 18338520845390468915
12553582 1 18335422383079402043
12788726 201 18187641337300532121
13140716 1 18339079393340139273
13288520 33 18410009940308579395
13862211 1 18410289242354007383
14386348 63 17917992754818192534
14790565 3 17763186834971878929
15196674 1 18337951294098693961
15961568 22 18336260267091762604
16752209 62 18261386724325207555
16945 1 18409726227938926049
17138139 8 17532082985083390723
17349148 13 17385719171601143218
17492 89 17907293605117387543
17804303 29 18412823599249003441
1813 80 18412549841927571013
18222031 100 18270677688170113671
19141452 34 17775002427494233167
193927 3 18341338906756936155
19862831 5 17530686498194398818
200 152 16588022381663776488
20028762 73 18057885956073817583
20374829 77 18410572903236631871
20871999 31 18337117786637799036
21033648 29 17131255892312039915
21033650 10 18046089085349049940
21065201 7 18341891827797866298
21267235 1 18335986445693298475
21728266 224 18188759570664201938
2297311 6 18412833473088575574
23175994 123 17346881152422268889
23366157 5 17897725602754440013
23402539 116 18408315575399129671
23557571 272 18272649000812649592
23559900 14 18413386519095611444
3004659 81 18040430018584867655
314173 85 18272092703678835857
335352 9 18409726267052334141
465052 167 18266466588748397503
474 4 17023763350005520324
5104073 3 18341336712149552321
573450 72 18187920621695786632
602551 16 18412824668690624378
67856867 119 18187367683775908276
7364860 26 18126285491440728585
7495541 125 18202279217511116160
77492 1 17531530876096207384
7970288 3 18337387253029349179
9709674 26 18199470952612142918

>  <PUBCHEM_SHAPE_MULTIPOLES>
396.95
10.64
2.28
1.08
3.76
1.07
-0.1
-6.17
-0.53
-2.96
-0.07
1.72
-0.2
0.22

>  <PUBCHEM_SHAPE_SELFOVERLAP>
888.737

>  <PUBCHEM_SHAPE_VOLUME>
209.3

>  <RI>
-5.44169e+08

>  <Rbt.Current_Directory>
/root/miniconda3/envs/rdock/share/rxdock-2013.1.1_148c5bd1-0/data/ligands/prepped_ligands/Fisetin

>  <Rbt.Executable>
rbdock/0.1.0

>  <Rbt.Library>
librxdock.so/0.1.0

>  <Rbt.Parameter_File>
/root/miniconda3/envs/rdock/share/rxdock-2013.1.1_148c5bd1-0/data/scripts/dock.prm

>  <Rbt.Receptor>
def.prm

>  <SCORE>
-19.7774

>  <SCORE.INTER>
-16.6054

>  <SCORE.INTER.CONST>
1

>  <SCORE.INTER.POLAR>
-1.96637

>  <SCORE.INTER.REPUL>
0

>  <SCORE.INTER.ROT>
1

>  <SCORE.INTER.VDW>
-16.3197

>  <SCORE.INTER.norm>
-0.790733

>  <SCORE.INTRA>
-2.21216

>  <SCORE.INTRA.DIHEDRAL>
-4.51671

>  <SCORE.INTRA.DIHEDRAL.0>
6.17317

>  <SCORE.INTRA.POLAR>
-0.120482

>  <SCORE.INTRA.POLAR.0>
0

>  <SCORE.INTRA.REPUL>
0

>  <SCORE.INTRA.REPUL.0>
0

>  <SCORE.INTRA.VDW>
0.455837

>  <SCORE.INTRA.VDW.0>
0.491979

>  <SCORE.INTRA.norm>
-0.105341

>  <SCORE.RESTR>
0

>  <SCORE.RESTR.CAVITY>
0

>  <SCORE.RESTR.norm>
0

>  <SCORE.SYSTEM>
-0.959853

>  <SCORE.SYSTEM.CONST>
0

>  <SCORE.SYSTEM.DIHEDRAL>
0.178877

>  <SCORE.SYSTEM.POLAR>
-0.011696

>  <SCORE.SYSTEM.VDW>
-1.00952

>  <SCORE.SYSTEM.norm>
-0.0457073

>  <SCORE.heavy>
21

>  <SCORE.norm>
-0.941781

$$$$
5281614
  RxDock  02242110563D
librxdock.so/0.1.0
 25 27  0  0  0  0  0  0  0  0999 V2000
  -50.6676   -1.1654   13.5859 O   0  0  0  0  0  0
  -47.0380   -0.9282   14.1844 O   0  0  0  0  0  0
  -47.7363   -3.3183   15.4236 O   0  0  0  0  0  0
  -53.9815   -4.3455   14.7843 O   0  0  0  0  0  0
  -50.8425    3.7645   12.5047 O   0  0  0  0  0  0
  -48.6119    4.1454   10.8920 O   0  0  0  0  0  0
  -49.3487   -0.7395   13.5843 C   0  0  0  0  0  0
  -50.0174   -3.1293   14.8555 C   0  0  0  0  0  0
  -50.9731   -2.3462   14.2118 C   0  0  0  0  0  0
  -49.1589    0.5410   12.8800 C   0  0  0  0  0  0
  -48.3342   -1.3962   14.1760 C   0  0  0  0  0  0
  -48.6181   -2.6759   14.8693 C   0  0  0  0  0  0
  -50.3872   -4.3240   15.4782 C   0  0  0  0  0  0
  -52.3072   -2.7534   14.1869 C   0  0  0  0  0  0
  -50.0980    1.5626   13.0239 C   0  0  0  0  0  0
  -48.0399    0.7323   12.0691 C   0  0  0  0  0  0
  -52.6804   -3.9457   14.8073 C   0  0  0  0  0  0
  -51.7222   -4.7294   15.4515 C   0  0  0  0  0  0
  -49.9183    2.7749   12.3577 C   0  0  0  0  0  0
  -47.8603    1.9444   11.4025 C   0  0  0  0  0  0
  -48.7994    2.9657   11.5469 C   0  0  0  0  0  0
  -46.4707   -1.5372   14.6838 H   0  0  0  0  0  0
  -54.2963   -4.3412   13.8639 H   0  0  0  0  0  0
  -51.6991    3.3786   12.7493 H   0  0  0  0  0  0
  -49.3168    4.7683   11.1319 H   0  0  0  0  0  0
  1  7  1  0  0  0
  1  9  1  0  0  0
  2 11  1  0  0  0
  2 22  1  0  0  0
  3 12  2  0  0  0
  4 17  1  0  0  0
  4 23  1  0  0  0
  5 19  1  0  0  0
  5 24  1  0  0  0
  6 21  1  0  0  0
  6 25  1  0  0  0
  7 10  1  0  0  0
  7 11  2  0  0  0
  8  9  2  0  0  0
  8 12  1  0  0  0
  8 13  1  0  0  0
  9 14  1  0  0  0
 10 15  2  0  0  0
 10 16  1  0  0  0
 11 12  1  0  0  0
 13 18  2  0  0  0
 14 17  2  0  0  0
 15 19  1  0  0  0
 16 20  2  0  0  0
 17 18  1  0  0  0
 19 21  2  0  0  0
 20 21  1  0  0  0
M  END
>  <CHROM.0>
-59.31428367,-62.11431587,175.33195562

>  <CHROM.1>
178.38289005,52.43439084,-24.52261905,3.19703198,39.98545895,-49.87214372
-0.77311154,13.61831893,1.88148517,0.05393203,2.68839793

>  <Name>
5281614

>  <PUBCHEM_ATOM_DEF_STEREO_COUNT>
0

>  <PUBCHEM_ATOM_UDEF_STEREO_COUNT>
0

>  <PUBCHEM_BOND_DEF_STEREO_COUNT>
0

>  <PUBCHEM_BOND_UDEF_STEREO_COUNT>
0

>  <PUBCHEM_CACTVS_TAUTO_COUNT>
211

>  <PUBCHEM_COMPONENT_COUNT>
1

>  <PUBCHEM_COMPOUND_CID>
5281614

>  <PUBCHEM_CONFORMER_DIVERSEORDER>
1
3
2
4

>  <PUBCHEM_CONFORMER_ID>
0050974E00000001

>  <PUBCHEM_CONFORMER_RMSD>
0.6

>  <PUBCHEM_COORDINATE_TYPE>
2
5
10

>  <PUBCHEM_EFFECTIVE_ROTOR_COUNT>
1

>  <PUBCHEM_FEATURE_SELFOVERLAP>
45.705

>  <PUBCHEM_HEAVY_ATOM_COUNT>
21

>  <PUBCHEM_ISOTOPIC_ATOM_COUNT>
0

>  <PUBCHEM_MMFF94_ENERGY>
63.3231

>  <PUBCHEM_MMFF94_PARTIAL_CHARGES>
31
1 -0.16
10 0.03
11 0.09
12 0.47
13 -0.15
14 -0.15
15 -0.15
16 -0.15
17 0.08
18 -0.15
19 0.08
2 -0.53
20 -0.15
21 0.08
22 0.15
23 0.15
24 0.15
25 0.15
26 0.15
27 0.15
28 0.45
29 0.45
3 -0.57
30 0.45
31 0.45
4 -0.53
5 -0.53
6 -0.53
7 0.05
8 0.09
9 0.08

>  <PUBCHEM_PHARMACOPHORE_FEATURES>
9
1 1 acceptor
1 2 donor
1 3 acceptor
1 4 donor
1 5 donor
1 6 donor
6 1 7 8 9 11 12 rings
6 10 15 16 19 20 21 rings
6 8 9 13 14 17 18 rings

>  <PUBCHEM_SHAPE_FINGERPRINT>
10319926 262 18197191691463025650
11046707 91 18409165524084290187
11370993 144 16916795041429104491
11543360 7 15574712534293567507
11552529 35 14619643787438718685
11796584 16 18053666872396607318
12236239 1 17676205732828356282
12363563 72 18338520845390468915
12553582 1 18335422383079402043
12788726 201 18187641337300532121
13140716 1 18339079393340139273
13288520 33 18410009940308579395
13862211 1 18410289242354007383
14386348 63 17917992754818192534
14790565 3 17763186834971878929
15196674 1 18337951294098693961
15961568 22 18336260267091762604
16752209 62 18261386724325207555
16945 1 18409726227938926049
17138139 8 17532082985083390723
17349148 13 17385719171601143218
17492 89 17907293605117387543
17804303 29 18412823599249003441
1813 80 18412549841927571013
18222031 100 18270677688170113671
19141452 34 17775002427494233167
193927 3 18341338906756936155
19862831 5 17530686498194398818
200 152 16588022381663776488
20028762 73 18057885956073817583
20374829 77 18410572903236631871
20871999 31 18337117786637799036
21033648 29 17131255892312039915
21033650 10 18046089085349049940
21065201 7 18341891827797866298
21267235 1 18335986445693298475
21728266 224 18188759570664201938
2297311 6 18412833473088575574
23175994 123 17346881152422268889
23366157 5 17897725602754440013
23402539 116 18408315575399129671
23557571 272 18272649000812649592
23559900 14 18413386519095611444
3004659 81 18040430018584867655
314173 85 18272092703678835857
335352 9 18409726267052334141
465052 167 18266466588748397503
474 4 17023763350005520324
5104073 3 18341336712149552321
573450 72 18187920621695786632
602551 16 18412824668690624378
67856867 119 18187367683775908276
7364860 26 18126285491440728585
7495541 125 18202279217511116160
77492 1 17531530876096207384
7970288 3 18337387253029349179
9709674 26 18199470952612142918

>  <PUBCHEM_SHAPE_MULTIPOLES>
396.95
10.64
2.28
1.08
3.76
1.07
-0.1
-6.17
-0.53
-2.96
-0.07
1.72
-0.2
0.22

>  <PUBCHEM_SHAPE_SELFOVERLAP>
888.737

>  <PUBCHEM_SHAPE_VOLUME>
209.3

>  <RI>
-5.44169e+08

>  <Rbt.Current_Directory>
/root/miniconda3/envs/rdock/share/rxdock-2013.1.1_148c5bd1-0/data/ligands/prepped_ligands/Fisetin

>  <Rbt.Executable>
rbdock/0.1.0

>  <Rbt.Library>
librxdock.so/0.1.0

>  <Rbt.Parameter_File>
/root/miniconda3/envs/rdock/share/rxdock-2013.1.1_148c5bd1-0/data/scripts/dock.prm

>  <Rbt.Receptor>
def.prm

>  <SCORE>
-20.4496

>  <SCORE.INTER>
-18.528

>  <SCORE.INTER.CONST>
1

>  <SCORE.INTER.POLAR>
-0.916799

>  <SCORE.INTER.REPUL>
0

>  <SCORE.INTER.ROT>
1

>  <SCORE.INTER.VDW>
-21.8109

>  <SCORE.INTER.norm>
-0.882287

>  <SCORE.INTRA>
-0.980038

>  <SCORE.INTRA.DIHEDRAL>
-0.284357

>  <SCORE.INTRA.DIHEDRAL.0>
6.17317

>  <SCORE.INTRA.POLAR>
-0.118904

>  <SCORE.INTRA.POLAR.0>
0

>  <SCORE.INTRA.REPUL>
0

>  <SCORE.INTRA.REPUL.0>
0

>  <SCORE.INTRA.VDW>
-0.433584

>  <SCORE.INTRA.VDW.0>
0.491979

>  <SCORE.INTRA.norm>
-0.0466685

>  <SCORE.RESTR>
0.134986

>  <SCORE.RESTR.CAVITY>
0.134986

>  <SCORE.RESTR.norm>
0.00642792

>  <SCORE.SYSTEM>
-1.07657

>  <SCORE.SYSTEM.CONST>
0

>  <SCORE.SYSTEM.DIHEDRAL>
0.0801572

>  <SCORE.SYSTEM.VDW>
-1.11665

>  <SCORE.SYSTEM.norm>
-0.0512653

>  <SCORE.heavy>
21

>  <SCORE.norm>
-0.973793

$$$$
5281614
  RxDock  02242110563D
librxdock.so/0.1.0
 25 27  0  0  0  0  0  0  0  0999 V2000
  -48.7559   -2.7421   16.1353 O   0  0  0  0  0  0
  -50.6914   -0.6797   13.7714 O   0  0  0  0  0  0
  -48.1108    0.3312   13.5387 O   0  0  0  0  0  0
  -44.1920   -2.8160   17.4380 O   0  0  0  0  0  0
  -53.2927   -3.6516   18.4175 O   0  0  0  0  0  0
  -54.7334   -4.7235   16.2968 O   0  0  0  0  0  0
  -49.7829   -2.2172   15.3668 C   0  0  0  0  0  0
  -47.2122   -1.1649   15.1249 C   0  0  0  0  0  0
  -47.4987   -2.2136   15.9962 C   0  0  0  0  0  0
  -51.0790   -2.8736   15.6138 C   0  0  0  0  0  0
  -49.6417   -1.2006   14.4967 C   0  0  0  0  0  0
  -48.3006   -0.5942   14.3165 C   0  0  0  0  0  0
  -45.9112   -0.6654   15.0255 C   0  0  0  0  0  0
  -46.4842   -2.7703   16.7755 C   0  0  0  0  0  0
  -51.5837   -2.9556   16.9119 C   0  0  0  0  0  0
  -51.8020   -3.4132   14.5497 C   0  0  0  0  0  0
  -45.1839   -2.2745   16.6790 C   0  0  0  0  0  0
  -44.8982   -1.2243   15.8056 C   0  0  0  0  0  0
  -52.8108   -3.5764   17.1458 C   0  0  0  0  0  0
  -53.0289   -4.0343   14.7836 C   0  0  0  0  0  0
  -53.5333   -4.1159   16.0815 C   0  0  0  0  0  0
  -51.5074   -1.1625   13.9791 H   0  0  0  0  0  0
  -43.9265   -3.6672   17.0490 H   0  0  0  0  0  0
  -52.7710   -3.0761   18.9997 H   0  0  0  0  0  0
  -55.1806   -4.8742   15.4484 H   0  0  0  0  0  0
  1  7  1  0  0  0
  1  9  1  0  0  0
  2 11  1  0  0  0
  2 22  1  0  0  0
  3 12  2  0  0  0
  4 17  1  0  0  0
  4 23  1  0  0  0
  5 19  1  0  0  0
  5 24  1  0  0  0
  6 21  1  0  0  0
  6 25  1  0  0  0
  7 10  1  0  0  0
  7 11  2  0  0  0
  8  9  2  0  0  0
  8 12  1  0  0  0
  8 13  1  0  0  0
  9 14  1  0  0  0
 10 15  2  0  0  0
 10 16  1  0  0  0
 11 12  1  0  0  0
 13 18  2  0  0  0
 14 17  2  0  0  0
 15 19  1  0  0  0
 16 20  2  0  0  0
 17 18  1  0  0  0
 19 21  2  0  0  0
 20 21  1  0  0  0
M  END
>  <CHROM.0>
59.34602981,-57.86729761,-90.57867137

>  <CHROM.1>
-0.86228423,76.54990938,11.83614601,168.35351189,54.29062966,-49.50525704
-2.37728922,15.75161654,-0.22543946,0.19359455,2.24362802

>  <Name>
5281614

>  <PUBCHEM_ATOM_DEF_STEREO_COUNT>
0

>  <PUBCHEM_ATOM_UDEF_STEREO_COUNT>
0

>  <PUBCHEM_BOND_DEF_STEREO_COUNT>
0

>  <PUBCHEM_BOND_UDEF_STEREO_COUNT>
0

>  <PUBCHEM_CACTVS_TAUTO_COUNT>
211

>  <PUBCHEM_COMPONENT_COUNT>
1

>  <PUBCHEM_COMPOUND_CID>
5281614

>  <PUBCHEM_CONFORMER_DIVERSEORDER>
1
3
2
4

>  <PUBCHEM_CONFORMER_ID>
0050974E00000001

>  <PUBCHEM_CONFORMER_RMSD>
0.6

>  <PUBCHEM_COORDINATE_TYPE>
2
5
10

>  <PUBCHEM_EFFECTIVE_ROTOR_COUNT>
1

>  <PUBCHEM_FEATURE_SELFOVERLAP>
45.705

>  <PUBCHEM_HEAVY_ATOM_COUNT>
21

>  <PUBCHEM_ISOTOPIC_ATOM_COUNT>
0

>  <PUBCHEM_MMFF94_ENERGY>
63.3231

>  <PUBCHEM_MMFF94_PARTIAL_CHARGES>
31
1 -0.16
10 0.03
11 0.09
12 0.47
13 -0.15
14 -0.15
15 -0.15
16 -0.15
17 0.08
18 -0.15
19 0.08
2 -0.53
20 -0.15
21 0.08
22 0.15
23 0.15
24 0.15
25 0.15
26 0.15
27 0.15
28 0.45
29 0.45
3 -0.57
30 0.45
31 0.45
4 -0.53
5 -0.53
6 -0.53
7 0.05
8 0.09
9 0.08

>  <PUBCHEM_PHARMACOPHORE_FEATURES>
9
1 1 acceptor
1 2 donor
1 3 acceptor
1 4 donor
1 5 donor
1 6 donor
6 1 7 8 9 11 12 rings
6 10 15 16 19 20 21 rings
6 8 9 13 14 17 18 rings

>  <PUBCHEM_SHAPE_FINGERPRINT>
10319926 262 18197191691463025650
11046707 91 18409165524084290187
11370993 144 16916795041429104491
11543360 7 15574712534293567507
11552529 35 14619643787438718685
11796584 16 18053666872396607318
12236239 1 17676205732828356282
12363563 72 18338520845390468915
12553582 1 18335422383079402043
12788726 201 18187641337300532121
13140716 1 18339079393340139273
13288520 33 18410009940308579395
13862211 1 18410289242354007383
14386348 63 17917992754818192534
14790565 3 17763186834971878929
15196674 1 18337951294098693961
15961568 22 18336260267091762604
16752209 62 18261386724325207555
16945 1 18409726227938926049
17138139 8 17532082985083390723
17349148 13 17385719171601143218
17492 89 17907293605117387543
17804303 29 18412823599249003441
1813 80 18412549841927571013
18222031 100 18270677688170113671
19141452 34 17775002427494233167
193927 3 18341338906756936155
19862831 5 17530686498194398818
200 152 16588022381663776488
20028762 73 18057885956073817583
20374829 77 18410572903236631871
20871999 31 18337117786637799036
21033648 29 17131255892312039915
21033650 10 18046089085349049940
21065201 7 18341891827797866298
21267235 1 18335986445693298475
21728266 224 18188759570664201938
2297311 6 18412833473088575574
23175994 123 17346881152422268889
23366157 5 17897725602754440013
23402539 116 18408315575399129671
23557571 272 18272649000812649592
23559900 14 18413386519095611444
3004659 81 18040430018584867655
314173 85 18272092703678835857
335352 9 18409726267052334141
465052 167 18266466588748397503
474 4 17023763350005520324
5104073 3 18341336712149552321
573450 72 18187920621695786632
602551 16 18412824668690624378
67856867 119 18187367683775908276
7364860 26 18126285491440728585
7495541 125 18202279217511116160
77492 1 17531530876096207384
7970288 3 18337387253029349179
9709674 26 18199470952612142918

>  <PUBCHEM_SHAPE_MULTIPOLES>
396.95
10.64
2.28
1.08
3.76
1.07
-0.1
-6.17
-0.53
-2.96
-0.07
1.72
-0.2
0.22

>  <PUBCHEM_SHAPE_SELFOVERLAP>
888.737

>  <PUBCHEM_SHAPE_VOLUME>
209.3

>  <RI>
-5.44169e+08

>  <Rbt.Current_Directory>
/root/miniconda3/envs/rdock/share/rxdock-2013.1.1_148c5bd1-0/data/ligands/prepped_ligands/Fisetin

>  <Rbt.Executable>
rbdock/0.1.0

>  <Rbt.Library>
librxdock.so/0.1.0

>  <Rbt.Parameter_File>
/root/miniconda3/envs/rdock/share/rxdock-2013.1.1_148c5bd1-0/data/scripts/dock.prm

>  <Rbt.Receptor>
def.prm

>  <SCORE>
-19.4888

>  <SCORE.INTER>
-20.8453

>  <SCORE.INTER.CONST>
1

>  <SCORE.INTER.POLAR>
-2.88945

>  <SCORE.INTER.REPUL>
0.00135436

>  <SCORE.INTER.ROT>
1

>  <SCORE.INTER.VDW>
-17.4279

>  <SCORE.INTER.norm>
-0.992632

>  <SCORE.INTRA>
1.27136

>  <SCORE.INTRA.DIHEDRAL>
1.96882

>  <SCORE.INTRA.DIHEDRAL.0>
6.17317

>  <SCORE.INTRA.POLAR>
0

>  <SCORE.INTRA.POLAR.0>
0

>  <SCORE.INTRA.REPUL>
0

>  <SCORE.INTRA.REPUL.0>
0

>  <SCORE.INTRA.VDW>
0.286952

>  <SCORE.INTRA.VDW.0>
0.491979

>  <SCORE.INTRA.norm>
0.0605411

>  <SCORE.RESTR>
0

>  <SCORE.RESTR.CAVITY>
0

>  <SCORE.RESTR.norm>
0

>  <SCORE.SYSTEM>
0.0851043

>  <SCORE.SYSTEM.CONST>
0

>  <SCORE.SYSTEM.DIHEDRAL>
1.89415

>  <SCORE.SYSTEM.VDW>
-0.861969

>  <SCORE.SYSTEM.norm>
0.00405258

>  <SCORE.heavy>
21

>  <SCORE.norm>
-0.928038

$$$$
