REMARK  13 active torsions:
REMARK  status: ('A' for Active; 'I' for Inactive)
REMARK    1  A    between atoms: C_5  and  N_6 
REMARK    2  A    between atoms: C_9  and  N_10 
REMARK    3  A    between atoms: N_10  and  C_11 
REMARK    4  A    between atoms: C_11  and  C_12 
REMARK    5  A    between atoms: C_12  and  C_13 
REMARK    6  A    between atoms: C_13  and  C_14 
REMARK    7  A    between atoms: C_14  and  C_15 
REMARK    8  A    between atoms: C_15  and  C_16 
REMARK    9  A    between atoms: C_16  and  N_17 
REMARK       I    between atoms: N_17  and  C_18 
REMARK   10  A    between atoms: C_18  and  C_20 
REMARK   11  A    between atoms: C_25  and  N_26 
REMARK       I    between atoms: N_26  and  C_27 
REMARK   12  A    between atoms: C_27  and  C_29 
REMARK   13  A    between atoms: C_29  and  C_30 
ROOT
HETATM    1  O   MOL     1       8.961 -10.680  26.085  1.00 -0.03    -0.273 OA
HETATM    2  C   MOL     1       8.969  -9.464  26.167  1.00 -0.41     0.224 C 
HETATM    3  C   MOL     1      10.152  -8.715  26.737  1.00 -0.27     0.106 C 
HETATM    4  C   MOL     1      10.318  -7.332  26.101  1.00 -0.23     0.044 C 
HETATM    5  C   MOL     1       8.998  -6.598  26.355  1.00 -0.30     0.180 C 
HETATM    6  C   MOL     1       7.823  -7.346  25.764  1.00 -0.49     0.247 C 
HETATM    7  O   MOL     1       6.846  -6.760  25.329  1.00 -0.12    -0.271 OA
HETATM    8  N   MOL     1       7.937  -8.693  25.753  1.00 -0.04    -0.296 N 
HETATM    9  HN  MOL     1       7.248  -9.129  25.420  1.00 -0.27     0.171 HD
ENDROOT
BRANCH   5  10
HETATM   10  N   MOL     1       9.063  -5.217  25.853  1.00  0.05    -0.337 N 
HETATM   11  C   MOL     1      10.024  -4.799  24.818  1.00 -0.25     0.138 C 
HETATM   12  C   MOL     1      10.049  -3.340  25.310  1.00 -0.27     0.070 C 
HETATM   13  C   MOL     1      10.774  -2.216  24.601  1.00 -0.20     0.011 C 
HETATM   14  C   MOL     1       8.574  -3.005  25.548  1.00 -0.40     0.112 C 
HETATM   15  C   MOL     1      10.420  -0.947  24.859  1.00 -0.28     0.025 C 
HETATM   16  C   MOL     1       9.343  -0.664  25.809  1.00 -0.47    -0.001 C 
HETATM   17  C   MOL     1       8.476  -1.621  26.136  1.00 -0.52    -0.012 C 
HETATM   18  C   MOL     1       8.259  -4.251  26.325  1.00 -0.44     0.229 C 
HETATM   19  O   MOL     1       7.430  -4.357  27.218  1.00 -0.63    -0.273 OA
BRANCH  13  20
HETATM   20  N   MOL     1      11.768  -2.641  23.768  1.00  0.04    -0.393 N 
HETATM   21  HN  MOL     1      12.320  -3.263  24.059  1.00 -0.01     0.159 HD
BRANCH  20  22
HETATM   22  C   MOL     1      11.639  -2.464  22.315  1.00 -0.24     0.119 C 
BRANCH  22  23
HETATM   23  C   MOL     1      12.466  -1.299  21.748  1.00 -0.09     0.020 C 
BRANCH  23  24
HETATM   24  C   MOL     1      11.506  -0.336  21.034  1.00 -0.19     0.002 C 
BRANCH  24  25
HETATM   25  C   MOL     1      12.151   0.211  19.752  1.00 -0.35     0.002 C 
BRANCH  25  26
HETATM   26  C   MOL     1      11.040   0.474  18.725  1.00 -0.42     0.020 C 
BRANCH  26  27
HETATM   27  C   MOL     1      10.421   1.859  18.960  1.00 -0.29     0.123 C 
BRANCH  27  28
HETATM   28  N   MOL     1      11.501   2.856  18.983  1.00 -0.04    -0.357 N 
HETATM   29  C   MOL     1      11.417   3.922  19.810  1.00 -0.29     0.254 C 
HETATM   30  O   MOL     1      10.463   4.107  20.562  1.00 -0.19    -0.268 OA
HETATM   31  HN  MOL     1      12.206   2.740  18.471  1.00 -0.09     0.162 HD
BRANCH  29  32
HETATM   32  C   MOL     1      12.501   4.944  19.829  1.00 -0.21     0.061 A 
HETATM   33  C   MOL     1      12.940   5.531  18.658  1.00 -0.36     0.038 A 
HETATM   34  C   MOL     1      13.920   6.490  18.681  1.00 -0.38     0.117 A 
HETATM   35  N   MOL     1      14.516   6.925  19.807  1.00 -0.12    -0.271 NA
HETATM   36  C   MOL     1      14.087   6.352  20.943  1.00 -0.27     0.146 A 
HETATM   37  C   MOL     1      13.107   5.376  21.006  1.00 -0.14     0.068 A 
BRANCH  37  38
HETATM   38  N   MOL     1      12.744   4.827  22.242  1.00  0.07    -0.325 N 
HETATM   39  C   MOL     1      11.978   5.422  23.179  1.00 -0.29     0.226 C 
HETATM   40  O   MOL     1      11.466   6.526  23.062  1.00 -0.10    -0.273 OA
HETATM   41  HN  MOL     1      13.043   4.020  22.417  1.00  0.05     0.169 HD
BRANCH  39  42
HETATM   42  C   MOL     1      11.774   4.567  24.413  1.00 -0.34     0.141 C 
BRANCH  42  43
HETATM   43  C   MOL     1      12.940   4.733  25.370  1.00 -0.21    -0.048 A 
HETATM   44  C   MOL     1      13.454   5.985  25.624  1.00 -0.31     0.007 A 
HETATM   45  C   MOL     1      14.511   6.135  26.493  1.00 -0.36     0.002 A 
HETATM   46  C   MOL     1      15.057   5.033  27.111  1.00 -0.30     0.024 A 
HETATM   47  C   MOL     1      14.544   3.780  26.860  1.00 -0.25     0.034 A 
HETATM   48 CL   MOL     1      15.232   2.386  27.640  1.00 -0.85    -0.084 Cl
HETATM   49  C   MOL     1      13.486   3.631  25.990  1.00 -0.22     0.031 A 
ENDBRANCH  42  43
ENDBRANCH  39  42
ENDBRANCH  37  38
ENDBRANCH  29  32
ENDBRANCH  27  28
ENDBRANCH  26  27
ENDBRANCH  25  26
ENDBRANCH  24  25
ENDBRANCH  23  24
ENDBRANCH  22  23
ENDBRANCH  20  22
ENDBRANCH  13  20
ENDBRANCH   5  10
TORSDOF 13
