REMARK  9 active torsions:
REMARK  status: ('A' for Active; 'I' for Inactive)
REMARK    1  A    between atoms: S_1  and  S_2 
REMARK    2  A    between atoms: S_1  and  C_15 
REMARK    3  A    between atoms: S_2  and  C_16 
REMARK    4  A    between atoms: N_5  and  C_7 
REMARK    5  A    between atoms: N_5  and  C_8 
REMARK    6  A    between atoms: N_5  and  C_15 
REMARK    7  A    between atoms: N_6  and  C_9 
REMARK    8  A    between atoms: N_6  and  C_10 
REMARK    9  A    between atoms: N_6  and  C_16 
ROOT
HETATM    1  S   MOL     1       0.437   1.214   1.288  1.00  0.00    -0.020 SA
ENDROOT
BRANCH   1   2
HETATM    2  S   MOL     1      -0.885   1.894  -0.141  1.00  0.00    -0.020 SA
BRANCH   2   3
HETATM    3  C   MOL     1      -1.492   0.367  -0.819  1.00  0.00     0.147 C 
HETATM    4  S   MOL     1      -0.649  -0.323  -2.112  1.00  0.00    -0.052 SA
BRANCH   3   5
HETATM    5  N   MOL     1      -2.636  -0.181  -0.203  1.00  0.00    -0.367 N 
BRANCH   5   6
HETATM    6  C   MOL     1      -3.227  -1.449  -0.639  1.00  0.00     0.120 C 
HETATM    7  C   MOL     1      -2.601  -2.628   0.076  1.00  0.00     0.026 C 
ENDBRANCH   5   6
BRANCH   5   8
HETATM    8  C   MOL     1      -3.335   0.430   0.932  1.00  0.00     0.120 C 
HETATM    9  C   MOL     1      -4.396   1.406   0.469  1.00  0.00     0.026 C 
ENDBRANCH   5   8
ENDBRANCH   3   5
ENDBRANCH   2   3
ENDBRANCH   1   2
BRANCH   1  10
HETATM   10  C   MOL     1       1.946   1.111   0.356  1.00  0.00     0.147 C 
HETATM   11  S   MOL     1       2.563   2.531  -0.325  1.00  0.00    -0.052 SA
BRANCH  10  12
HETATM   12  N   MOL     1       2.543  -0.163   0.270  1.00  0.00    -0.367 N 
BRANCH  12  13
HETATM   13  C   MOL     1       3.802  -0.438  -0.431  1.00  0.00     0.120 C 
HETATM   14  C   MOL     1       3.558  -0.837  -1.872  1.00  0.00     0.026 C 
ENDBRANCH  12  13
BRANCH  12  15
HETATM   15  C   MOL     1       1.937  -1.354   0.870  1.00  0.00     0.120 C 
HETATM   16  C   MOL     1       2.436  -1.580   2.282  1.00  0.00     0.026 C 
ENDBRANCH  12  15
ENDBRANCH  10  12
ENDBRANCH   1  10
TORSDOF 9
