MODEL 1
REMARK VINA RESULT:      -7.4      0.000      0.000
REMARK  10 active torsions:
REMARK  status: ('A' for Active; 'I' for Inactive)
REMARK    1  A    between atoms: O_2  and  C_15 
REMARK    2  A    between atoms: O_2  and  C_18 
REMARK    3  A    between atoms: O_3  and  C_12 
REMARK    4  A    between atoms: O_4  and  C_13 
REMARK    5  A    between atoms: O_5  and  C_14 
REMARK    6  A    between atoms: O_6  and  C_17 
REMARK    7  A    between atoms: O_9  and  C_20 
REMARK    8  A    between atoms: O_10  and  C_23 
REMARK    9  A    between atoms: C_16  and  C_17 
REMARK   10  A    between atoms: C_25  and  C_27 
ROOT
HETATM    1  O   UNK     0     -51.381   1.214  13.613  0.00  0.00    -0.340 OA
HETATM    2  C   UNK     0     -50.096   3.402  12.265  0.00  0.00     0.183 C 
HETATM    3  C   UNK     0     -49.658   1.950  12.072  0.00  0.00     0.205 C 
HETATM    4  C   UNK     0     -51.536   3.488  12.768  0.00  0.00     0.189 C 
HETATM    5  C   UNK     0     -49.995   1.102  13.298  0.00  0.00     0.299 C 
HETATM    6  C   UNK     0     -51.755   2.546  13.947  0.00  0.00     0.253 C 
ENDROOT
BRANCH   5   7
HETATM    7  O   UNK     0     -49.678  -0.257  12.996  0.00  0.00    -0.315 OA
BRANCH   7   8
HETATM    8  C   UNK     0     -49.094  -0.984  13.991  0.00  0.00     0.110 A 
HETATM    9  C   UNK     0     -48.035  -0.431  14.710  0.00  0.00     0.078 A 
HETATM   10  C   UNK     0     -47.430  -1.166  15.731  0.00  0.00     0.096 A 
HETATM   11  O   UNK     0     -46.393  -0.570  16.402  0.00  0.00    -0.309 OA
HETATM   12  C   UNK     0     -47.885  -2.449  16.028  0.00  0.00     0.084 A 
HETATM   13  C   UNK     0     -45.778  -1.274  17.427  0.00  0.00     0.090 A 
HETATM   14  C   UNK     0     -46.121  -2.516  17.802  0.00  0.00     0.094 A 
HETATM   15  C   UNK     0     -47.229  -3.202  17.108  0.00  0.00     0.190 A 
HETATM   16  O   UNK     0     -47.574  -4.334  17.420  0.00  0.00    -0.287 OA
HETATM   17  C   UNK     0     -48.946  -3.007  15.310  0.00  0.00     0.118 A 
HETATM   18  C   UNK     0     -49.548  -2.269  14.291  0.00  0.00     0.134 A 
BRANCH  13  19
HETATM   19  C   UNK     0     -44.673  -0.541  18.078  0.00  0.00    -0.002 A 
HETATM   20  C   UNK     0     -44.706   0.853  18.159  0.00  0.00     0.014 A 
HETATM   21  C   UNK     0     -43.663   1.544  18.775  0.00  0.00     0.001 A 
HETATM   22  C   UNK     0     -42.584   0.844  19.314  0.00  0.00     0.000 A 
HETATM   23  C   UNK     0     -42.547  -0.549  19.235  0.00  0.00     0.001 A 
HETATM   24  C   UNK     0     -43.590  -1.240  18.618  0.00  0.00     0.014 A 
ENDBRANCH  13  19
BRANCH  17  25
HETATM   25  O   UNK     0     -49.417  -4.258  15.573  0.00  0.00    -0.357 OA
HETATM   26  H   UNK     0     -50.387  -4.265  15.589  0.00  0.00     0.217 HD
ENDBRANCH  17  25
BRANCH  18  27
HETATM   27  O   UNK     0     -50.585  -2.804  13.582  0.00  0.00    -0.356 OA
HETATM   28  H   UNK     0     -51.353  -2.211  13.665  0.00  0.00     0.218 HD
ENDBRANCH  18  27
ENDBRANCH   7   8
ENDBRANCH   5   7
BRANCH   6  29
HETATM   29  C   UNK     0     -53.208   2.424  14.272  0.00  0.00     0.172 C 
HETATM   30  O   UNK     0     -53.881   3.290  14.812  0.00  0.00    -0.648 OA
BRANCH  29  31
HETATM   31  O   UNK     0     -53.684   1.214  13.890  0.00  0.00    -0.774 OA
HETATM   32  H   UNK     0     -53.661   1.102  12.916  0.00  0.00     0.167 HD
ENDBRANCH  29  31
ENDBRANCH   6  29
BRANCH   3  33
HETATM   33  O   UNK     0     -48.245   1.903  11.871  0.00  0.00    -0.388 OA
HETATM   34  H   UNK     0     -47.836   2.506  12.514  0.00  0.00     0.210 HD
ENDBRANCH   3  33
BRANCH   4  35
HETATM   35  O   UNK     0     -51.803   4.822  13.193  0.00  0.00    -0.390 OA
HETATM   36  H   UNK     0     -52.589   4.805  13.766  0.00  0.00     0.210 HD
ENDBRANCH   4  35
BRANCH   2  37
HETATM   37  O   UNK     0     -50.021   4.092  11.017  0.00  0.00    -0.390 OA
HETATM   38  H   UNK     0     -49.100   4.049  10.711  0.00  0.00     0.210 HD
ENDBRANCH   2  37
TORSDOF 10
ENDMDL
MODEL 2
REMARK VINA RESULT:      -7.0      3.136      5.868
REMARK  10 active torsions:
REMARK  status: ('A' for Active; 'I' for Inactive)
REMARK    1  A    between atoms: O_2  and  C_15 
REMARK    2  A    between atoms: O_2  and  C_18 
REMARK    3  A    between atoms: O_3  and  C_12 
REMARK    4  A    between atoms: O_4  and  C_13 
REMARK    5  A    between atoms: O_5  and  C_14 
REMARK    6  A    between atoms: O_6  and  C_17 
REMARK    7  A    between atoms: O_9  and  C_20 
REMARK    8  A    between atoms: O_10  and  C_23 
REMARK    9  A    between atoms: C_16  and  C_17 
REMARK   10  A    between atoms: C_25  and  C_27 
ROOT
HETATM    1  O   UNK     0     -47.632  -0.963  16.360  0.00  0.00    -0.340 OA
HETATM    2  C   UNK     0     -49.784  -1.323  14.491  0.00  0.00     0.183 C 
HETATM    3  C   UNK     0     -49.871  -0.342  15.660  0.00  0.00     0.205 C 
HETATM    4  C   UNK     0     -48.332  -1.637  14.132  0.00  0.00     0.189 C 
HETATM    5  C   UNK     0     -48.970  -0.779  16.816  0.00  0.00     0.299 C 
HETATM    6  C   UNK     0     -47.531  -1.990  15.380  0.00  0.00     0.253 C 
ENDROOT
BRANCH   5   7
HETATM    7  O   UNK     0     -49.003   0.245  17.811  0.00  0.00    -0.315 OA
BRANCH   7   8
HETATM    8  C   UNK     0     -48.055   0.176  18.790  0.00  0.00     0.110 A 
HETATM    9  C   UNK     0     -46.870   0.898  18.646  0.00  0.00     0.078 A 
HETATM   10  C   UNK     0     -45.894   0.835  19.642  0.00  0.00     0.096 A 
HETATM   11  O   UNK     0     -44.751   1.566  19.445  0.00  0.00    -0.309 OA
HETATM   12  C   UNK     0     -46.106   0.052  20.775  0.00  0.00     0.084 A 
HETATM   13  C   UNK     0     -43.767   1.528  20.421  0.00  0.00     0.090 A 
HETATM   14  C   UNK     0     -43.850   0.809  21.551  0.00  0.00     0.094 A 
HETATM   15  C   UNK     0     -45.060   0.002  21.808  0.00  0.00     0.190 A 
HETATM   16  O   UNK     0     -45.177  -0.667  22.827  0.00  0.00    -0.287 OA
HETATM   17  C   UNK     0     -47.291  -0.673  20.923  0.00  0.00     0.118 A 
HETATM   18  C   UNK     0     -48.265  -0.607  19.925  0.00  0.00     0.134 A 
BRANCH  13  19
HETATM   19  C   UNK     0     -42.578   2.346  20.107  0.00  0.00    -0.002 A 
HETATM   20  C   UNK     0     -41.706   2.739  21.127  0.00  0.00     0.014 A 
HETATM   21  C   UNK     0     -40.583   3.510  20.829  0.00  0.00     0.001 A 
HETATM   22  C   UNK     0     -40.326   3.891  19.512  0.00  0.00     0.000 A 
HETATM   23  C   UNK     0     -41.194   3.501  18.492  0.00  0.00     0.001 A 
HETATM   24  C   UNK     0     -42.317   2.729  18.789  0.00  0.00     0.014 A 
ENDBRANCH  13  19
BRANCH  17  25
HETATM   25  O   UNK     0     -47.533  -1.449  22.017  0.00  0.00    -0.357 OA
HETATM   26  H   UNK     0     -47.580  -2.386  21.771  0.00  0.00     0.217 HD
ENDBRANCH  17  25
BRANCH  18  27
HETATM   27  O   UNK     0     -49.427  -1.311  20.058  0.00  0.00    -0.356 OA
HETATM   28  H   UNK     0     -49.720  -1.249  20.984  0.00  0.00     0.218 HD
ENDBRANCH  18  27
ENDBRANCH   7   8
ENDBRANCH   5   7
BRANCH   6  29
HETATM   29  C   UNK     0     -46.068  -2.038  15.081  0.00  0.00     0.172 C 
HETATM   30  O   UNK     0     -45.240  -1.240  15.497  0.00  0.00    -0.648 OA
BRANCH  29  31
HETATM   31  O   UNK     0     -45.777  -3.089  14.278  0.00  0.00    -0.774 OA
HETATM   32  H   UNK     0     -44.821  -3.309  14.291  0.00  0.00     0.167 HD
ENDBRANCH  29  31
ENDBRANCH   6  29
BRANCH   3  33
HETATM   33  O   UNK     0     -51.216  -0.290  16.136  0.00  0.00    -0.388 OA
HETATM   34  H   UNK     0     -51.726  -0.960  15.652  0.00  0.00     0.210 HD
ENDBRANCH   3  33
BRANCH   4  35
HETATM   35  O   UNK     0     -48.301  -2.748  13.239  0.00  0.00    -0.390 OA
HETATM   36  H   UNK     0     -47.532  -3.298  13.467  0.00  0.00     0.210 HD
ENDBRANCH   4  35
BRANCH   2  37
HETATM   37  O   UNK     0     -50.410  -0.750  13.341  0.00  0.00    -0.390 OA
HETATM   38  H   UNK     0     -50.735  -1.480  12.788  0.00  0.00     0.210 HD
ENDBRANCH   2  37
TORSDOF 10
ENDMDL
MODEL 3
REMARK VINA RESULT:      -6.9      4.306      6.750
REMARK  10 active torsions:
REMARK  status: ('A' for Active; 'I' for Inactive)
REMARK    1  A    between atoms: O_2  and  C_15 
REMARK    2  A    between atoms: O_2  and  C_18 
REMARK    3  A    between atoms: O_3  and  C_12 
REMARK    4  A    between atoms: O_4  and  C_13 
REMARK    5  A    between atoms: O_5  and  C_14 
REMARK    6  A    between atoms: O_6  and  C_17 
REMARK    7  A    between atoms: O_9  and  C_20 
REMARK    8  A    between atoms: O_10  and  C_23 
REMARK    9  A    between atoms: C_16  and  C_17 
REMARK   10  A    between atoms: C_25  and  C_27 
ROOT
HETATM    1  O   UNK     0     -48.307  -1.941  16.372  0.00  0.00    -0.340 OA
HETATM    2  C   UNK     0     -49.923  -1.272  14.093  0.00  0.00     0.183 C 
HETATM    3  C   UNK     0     -50.507  -1.918  15.349  0.00  0.00     0.205 C 
HETATM    4  C   UNK     0     -48.603  -0.562  14.393  0.00  0.00     0.189 C 
HETATM    5  C   UNK     0     -49.452  -2.741  16.089  0.00  0.00     0.299 C 
HETATM    6  C   UNK     0     -47.671  -1.467  15.190  0.00  0.00     0.253 C 
ENDROOT
BRANCH   5   7
HETATM    7  O   UNK     0     -50.030  -3.204  17.310  0.00  0.00    -0.315 OA
BRANCH   7   8
HETATM    8  C   UNK     0     -49.931  -4.541  17.565  0.00  0.00     0.110 A 
HETATM    9  C   UNK     0     -48.733  -5.055  18.061  0.00  0.00     0.078 A 
HETATM   10  C   UNK     0     -48.621  -6.421  18.326  0.00  0.00     0.096 A 
HETATM   11  O   UNK     0     -47.420  -6.868  18.812  0.00  0.00    -0.309 OA
HETATM   12  C   UNK     0     -49.705  -7.265  18.093  0.00  0.00     0.084 A 
HETATM   13  C   UNK     0     -47.282  -8.219  19.091  0.00  0.00     0.090 A 
HETATM   14  C   UNK     0     -48.247  -9.132  18.904  0.00  0.00     0.094 A 
HETATM   15  C   UNK     0     -49.559  -8.701  18.378  0.00  0.00     0.190 A 
HETATM   16  O   UNK     0     -50.467  -9.501  18.195  0.00  0.00    -0.287 OA
HETATM   17  C   UNK     0     -50.906  -6.754  17.596  0.00  0.00     0.118 A 
HETATM   18  C   UNK     0     -51.015  -5.389  17.332  0.00  0.00     0.134 A 
BRANCH  13  19
HETATM   19  C   UNK     0     -45.948  -8.593  19.605  0.00  0.00    -0.002 A 
HETATM   20  C   UNK     0     -45.633  -8.391  20.951  0.00  0.00     0.014 A 
HETATM   21  C   UNK     0     -44.374  -8.745  21.436  0.00  0.00     0.001 A 
HETATM   22  C   UNK     0     -43.426  -9.302  20.578  0.00  0.00     0.000 A 
HETATM   23  C   UNK     0     -43.737  -9.504  19.233  0.00  0.00     0.001 A 
HETATM   24  C   UNK     0     -44.996  -9.150  18.748  0.00  0.00     0.014 A 
ENDBRANCH  13  19
BRANCH  17  25
HETATM   25  O   UNK     0     -51.986  -7.551  17.356  0.00  0.00    -0.357 OA
HETATM   26  H   UNK     0     -52.754  -7.020  17.093  0.00  0.00     0.217 HD
ENDBRANCH  17  25
BRANCH  18  27
HETATM   27  O   UNK     0     -52.183  -4.878  16.846  0.00  0.00    -0.356 OA
HETATM   28  H   UNK     0     -51.970  -4.159  16.225  0.00  0.00     0.218 HD
ENDBRANCH  18  27
ENDBRANCH   7   8
ENDBRANCH   5   7
BRANCH   6  29
HETATM   29  C   UNK     0     -46.499  -0.702  15.713  0.00  0.00     0.172 C 
HETATM   30  O   UNK     0     -46.420  -0.219  16.833  0.00  0.00    -0.648 OA
BRANCH  29  31
HETATM   31  O   UNK     0     -45.529  -0.611  14.772  0.00  0.00    -0.774 OA
HETATM   32  H   UNK     0     -45.209   0.310  14.663  0.00  0.00     0.167 HD
ENDBRANCH  29  31
ENDBRANCH   6  29
BRANCH   3  33
HETATM   33  O   UNK     0     -51.576  -2.790  14.980  0.00  0.00    -0.388 OA
HETATM   34  H   UNK     0     -51.695  -2.719  14.019  0.00  0.00     0.210 HD
ENDBRANCH   3  33
BRANCH   4  35
HETATM   35  O   UNK     0     -47.966  -0.221  13.163  0.00  0.00    -0.390 OA
HETATM   36  H   UNK     0     -48.211  -0.889  12.501  0.00  0.00     0.210 HD
ENDBRANCH   4  35
BRANCH   2  37
HETATM   37  O   UNK     0     -50.841  -0.302  13.585  0.00  0.00    -0.390 OA
HETATM   38  H   UNK     0     -51.721  -0.516  13.938  0.00  0.00     0.210 HD
ENDBRANCH   2  37
TORSDOF 10
ENDMDL
MODEL 4
REMARK VINA RESULT:      -6.9      4.734      7.368
REMARK  10 active torsions:
REMARK  status: ('A' for Active; 'I' for Inactive)
REMARK    1  A    between atoms: O_2  and  C_15 
REMARK    2  A    between atoms: O_2  and  C_18 
REMARK    3  A    between atoms: O_3  and  C_12 
REMARK    4  A    between atoms: O_4  and  C_13 
REMARK    5  A    between atoms: O_5  and  C_14 
REMARK    6  A    between atoms: O_6  and  C_17 
REMARK    7  A    between atoms: O_9  and  C_20 
REMARK    8  A    between atoms: O_10  and  C_23 
REMARK    9  A    between atoms: C_16  and  C_17 
REMARK   10  A    between atoms: C_25  and  C_27 
ROOT
HETATM    1  O   UNK     0     -48.043  -2.643  17.293  0.00  0.00    -0.340 OA
HETATM    2  C   UNK     0     -48.034  -2.124  14.466  0.00  0.00     0.183 C 
HETATM    3  C   UNK     0     -49.130  -2.946  15.144  0.00  0.00     0.205 C 
HETATM    4  C   UNK     0     -47.322  -1.212  15.465  0.00  0.00     0.189 C 
HETATM    5  C   UNK     0     -48.613  -3.614  16.418  0.00  0.00     0.299 C 
HETATM    6  C   UNK     0     -46.920  -1.987  16.714  0.00  0.00     0.253 C 
ENDROOT
BRANCH   5   7
HETATM    7  O   UNK     0     -49.717  -4.252  17.061  0.00  0.00    -0.315 OA
BRANCH   7   8
HETATM    8  C   UNK     0     -49.520  -5.533  17.486  0.00  0.00     0.110 A 
HETATM    9  C   UNK     0     -48.289  -5.888  18.039  0.00  0.00     0.078 A 
HETATM   10  C   UNK     0     -48.077  -7.196  18.478  0.00  0.00     0.096 A 
HETATM   11  O   UNK     0     -46.847  -7.485  19.011  0.00  0.00    -0.309 OA
HETATM   12  C   UNK     0     -49.093  -8.142  18.361  0.00  0.00     0.084 A 
HETATM   13  C   UNK     0     -46.610  -8.775  19.462  0.00  0.00     0.090 A 
HETATM   14  C   UNK     0     -47.504  -9.774  19.400  0.00  0.00     0.094 A 
HETATM   15  C   UNK     0     -48.841  -9.514  18.829  0.00  0.00     0.190 A 
HETATM   16  O   UNK     0     -49.686 -10.396  18.756  0.00  0.00    -0.287 OA
HETATM   17  C   UNK     0     -50.327  -7.791  17.808  0.00  0.00     0.118 A 
HETATM   18  C   UNK     0     -50.536  -6.483  17.371  0.00  0.00     0.134 A 
BRANCH  13  19
HETATM   19  C   UNK     0     -45.255  -8.978  20.013  0.00  0.00    -0.002 A 
HETATM   20  C   UNK     0     -44.951  -8.545  21.307  0.00  0.00     0.014 A 
HETATM   21  C   UNK     0     -43.671  -8.738  21.828  0.00  0.00     0.001 A 
HETATM   22  C   UNK     0     -42.692  -9.365  21.058  0.00  0.00     0.000 A 
HETATM   23  C   UNK     0     -42.991  -9.798  19.766  0.00  0.00     0.001 A 
HETATM   24  C   UNK     0     -44.271  -9.605  19.245  0.00  0.00     0.014 A 
ENDBRANCH  13  19
BRANCH  17  25
HETATM   25  O   UNK     0     -51.343  -8.690  17.678  0.00  0.00    -0.357 OA
HETATM   26  H   UNK     0     -51.072  -9.565  17.996  0.00  0.00     0.217 HD
ENDBRANCH  17  25
BRANCH  18  27
HETATM   27  O   UNK     0     -51.737  -6.128  16.828  0.00  0.00    -0.356 OA
HETATM   28  H   UNK     0     -51.590  -5.862  15.903  0.00  0.00     0.218 HD
ENDBRANCH  18  27
ENDBRANCH   7   8
ENDBRANCH   5   7
BRANCH   6  29
HETATM   29  C   UNK     0     -46.469  -1.061  17.797  0.00  0.00     0.172 C 
HETATM   30  O   UNK     0     -45.993  -1.411  18.867  0.00  0.00    -0.648 OA
BRANCH  29  31
HETATM   31  O   UNK     0     -46.661   0.230  17.433  0.00  0.00    -0.774 OA
HETATM   32  H   UNK     0     -46.393   0.854  18.141  0.00  0.00     0.167 HD
ENDBRANCH  29  31
ENDBRANCH   6  29
BRANCH   3  33
HETATM   33  O   UNK     0     -49.577  -3.967  14.252  0.00  0.00    -0.388 OA
HETATM   34  H   UNK     0     -50.055  -3.536  13.525  0.00  0.00     0.210 HD
ENDBRANCH   3  33
BRANCH   4  35
HETATM   35  O   UNK     0     -46.146  -0.682  14.857  0.00  0.00    -0.390 OA
HETATM   36  H   UNK     0     -46.228   0.287  14.835  0.00  0.00     0.210 HD
ENDBRANCH   4  35
BRANCH   2  37
HETATM   37  O   UNK     0     -48.613  -1.302  13.451  0.00  0.00    -0.390 OA
HETATM   38  H   UNK     0     -47.902  -1.042  12.842  0.00  0.00     0.210 HD
ENDBRANCH   2  37
TORSDOF 10
ENDMDL
MODEL 5
REMARK VINA RESULT:      -6.7      3.508      6.666
REMARK  10 active torsions:
REMARK  status: ('A' for Active; 'I' for Inactive)
REMARK    1  A    between atoms: O_2  and  C_15 
REMARK    2  A    between atoms: O_2  and  C_18 
REMARK    3  A    between atoms: O_3  and  C_12 
REMARK    4  A    between atoms: O_4  and  C_13 
REMARK    5  A    between atoms: O_5  and  C_14 
REMARK    6  A    between atoms: O_6  and  C_17 
REMARK    7  A    between atoms: O_9  and  C_20 
REMARK    8  A    between atoms: O_10  and  C_23 
REMARK    9  A    between atoms: C_16  and  C_17 
REMARK   10  A    between atoms: C_25  and  C_27 
ROOT
HETATM    1  O   UNK     0     -47.519  -3.281  16.415  0.00  0.00    -0.340 OA
HETATM    2  C   UNK     0     -49.366  -2.197  14.500  0.00  0.00     0.183 C 
HETATM    3  C   UNK     0     -47.902  -1.763  14.561  0.00  0.00     0.205 C 
HETATM    4  C   UNK     0     -49.569  -3.569  15.141  0.00  0.00     0.189 C 
HETATM    5  C   UNK     0     -47.331  -1.941  15.969  0.00  0.00     0.299 C 
HETATM    6  C   UNK     0     -48.895  -3.633  16.507  0.00  0.00     0.253 C 
ENDROOT
BRANCH   5   7
HETATM    7  O   UNK     0     -45.935  -1.641  15.919  0.00  0.00    -0.315 OA
BRANCH   7   8
HETATM    8  C   UNK     0     -45.401  -1.037  17.020  0.00  0.00     0.110 A 
HETATM    9  C   UNK     0     -46.166  -0.113  17.732  0.00  0.00     0.078 A 
HETATM   10  C   UNK     0     -45.629   0.510  18.860  0.00  0.00     0.096 A 
HETATM   11  O   UNK     0     -46.428   1.409  19.518  0.00  0.00    -0.309 OA
HETATM   12  C   UNK     0     -44.332   0.207  19.270  0.00  0.00     0.084 A 
HETATM   13  C   UNK     0     -45.923   2.038  20.646  0.00  0.00     0.090 A 
HETATM   14  C   UNK     0     -44.691   1.836  21.137  0.00  0.00     0.094 A 
HETATM   15  C   UNK     0     -43.790   0.880  20.461  0.00  0.00     0.190 A 
HETATM   16  O   UNK     0     -42.660   0.665  20.877  0.00  0.00    -0.287 OA
HETATM   17  C   UNK     0     -43.563  -0.718  18.560  0.00  0.00     0.118 A 
HETATM   18  C   UNK     0     -44.103  -1.338  17.433  0.00  0.00     0.134 A 
BRANCH  13  19
HETATM   19  C   UNK     0     -46.864   2.989  21.274  0.00  0.00    -0.002 A 
HETATM   20  C   UNK     0     -46.626   3.459  22.568  0.00  0.00     0.014 A 
HETATM   21  C   UNK     0     -47.513   4.358  23.161  0.00  0.00     0.001 A 
HETATM   22  C   UNK     0     -48.640   4.790  22.461  0.00  0.00     0.000 A 
HETATM   23  C   UNK     0     -48.881   4.322  21.169  0.00  0.00     0.001 A 
HETATM   24  C   UNK     0     -47.993   3.424  20.577  0.00  0.00     0.014 A 
ENDBRANCH  13  19
BRANCH  17  25
HETATM   25  O   UNK     0     -42.292  -1.038  18.932  0.00  0.00    -0.357 OA
HETATM   26  H   UNK     0     -42.288  -1.498  19.786  0.00  0.00     0.217 HD
ENDBRANCH  17  25
BRANCH  18  27
HETATM   27  O   UNK     0     -43.361  -2.244  16.731  0.00  0.00    -0.356 OA
HETATM   28  H   UNK     0     -42.509  -2.364  17.186  0.00  0.00     0.218 HD
ENDBRANCH  18  27
ENDBRANCH   7   8
ENDBRANCH   5   7
BRANCH   6  29
HETATM   29  C   UNK     0     -48.858  -5.035  17.020  0.00  0.00     0.172 C 
HETATM   30  O   UNK     0     -49.629  -5.924  16.691  0.00  0.00    -0.648 OA
BRANCH  29  31
HETATM   31  O   UNK     0     -47.849  -5.192  17.911  0.00  0.00    -0.774 OA
HETATM   32  H   UNK     0     -47.638  -6.138  18.064  0.00  0.00     0.167 HD
ENDBRANCH  29  31
ENDBRANCH   6  29
BRANCH   3  33
HETATM   33  O   UNK     0     -47.801  -0.383  14.209  0.00  0.00    -0.388 OA
HETATM   34  H   UNK     0     -48.355  -0.238  13.424  0.00  0.00     0.210 HD
ENDBRANCH   3  33
BRANCH   4  35
HETATM   35  O   UNK     0     -50.965  -3.805  15.308  0.00  0.00    -0.390 OA
HETATM   36  H   UNK     0     -51.424  -2.949  15.254  0.00  0.00     0.210 HD
ENDBRANCH   4  35
BRANCH   2  37
HETATM   37  O   UNK     0     -49.781  -2.280  13.135  0.00  0.00    -0.390 OA
HETATM   38  H   UNK     0     -49.227  -2.948  12.699  0.00  0.00     0.210 HD
ENDBRANCH   2  37
TORSDOF 10
ENDMDL
MODEL 6
REMARK VINA RESULT:      -6.6      3.625      7.989
REMARK  10 active torsions:
REMARK  status: ('A' for Active; 'I' for Inactive)
REMARK    1  A    between atoms: O_2  and  C_15 
REMARK    2  A    between atoms: O_2  and  C_18 
REMARK    3  A    between atoms: O_3  and  C_12 
REMARK    4  A    between atoms: O_4  and  C_13 
REMARK    5  A    between atoms: O_5  and  C_14 
REMARK    6  A    between atoms: O_6  and  C_17 
REMARK    7  A    between atoms: O_9  and  C_20 
REMARK    8  A    between atoms: O_10  and  C_23 
REMARK    9  A    between atoms: C_16  and  C_17 
REMARK   10  A    between atoms: C_25  and  C_27 
ROOT
HETATM    1  O   UNK     0     -45.710   0.077  18.354  0.00  0.00    -0.340 OA
HETATM    2  C   UNK     0     -43.413  -0.181  20.061  0.00  0.00     0.183 C 
HETATM    3  C   UNK     0     -43.470  -0.803  18.665  0.00  0.00     0.205 C 
HETATM    4  C   UNK     0     -44.405   0.973  20.198  0.00  0.00     0.189 C 
HETATM    5  C   UNK     0     -44.911  -1.099  18.250  0.00  0.00     0.299 C 
HETATM    6  C   UNK     0     -45.782   0.566  19.688  0.00  0.00     0.253 C 
ENDROOT
BRANCH   5   7
HETATM    7  O   UNK     0     -44.895  -1.554  16.896  0.00  0.00    -0.315 OA
BRANCH   7   8
HETATM    8  C   UNK     0     -46.083  -1.984  16.382  0.00  0.00     0.110 A 
HETATM    9  C   UNK     0     -46.705  -3.101  16.940  0.00  0.00     0.078 A 
HETATM   10  C   UNK     0     -47.922  -3.549  16.422  0.00  0.00     0.096 A 
HETATM   11  O   UNK     0     -48.484  -4.652  17.010  0.00  0.00    -0.309 OA
HETATM   12  C   UNK     0     -48.510  -2.879  15.350  0.00  0.00     0.084 A 
HETATM   13  C   UNK     0     -49.696  -5.115  16.521  0.00  0.00     0.090 A 
HETATM   14  C   UNK     0     -50.358  -4.562  15.493  0.00  0.00     0.094 A 
HETATM   15  C   UNK     0     -49.791  -3.374  14.823  0.00  0.00     0.190 A 
HETATM   16  O   UNK     0     -50.363  -2.838  13.883  0.00  0.00    -0.287 OA
HETATM   17  C   UNK     0     -47.890  -1.760  14.790  0.00  0.00     0.118 A 
HETATM   18  C   UNK     0     -46.675  -1.315  15.310  0.00  0.00     0.134 A 
BRANCH  13  19
HETATM   19  C   UNK     0     -50.210  -6.309  17.223  0.00  0.00    -0.002 A 
HETATM   20  C   UNK     0     -49.360  -7.386  17.489  0.00  0.00     0.014 A 
HETATM   21  C   UNK     0     -49.845  -8.513  18.153  0.00  0.00     0.001 A 
HETATM   22  C   UNK     0     -51.180  -8.567  18.554  0.00  0.00     0.000 A 
HETATM   23  C   UNK     0     -52.031  -7.494  18.290  0.00  0.00     0.001 A 
HETATM   24  C   UNK     0     -51.546  -6.367  17.626  0.00  0.00     0.014 A 
ENDBRANCH  13  19
BRANCH  17  25
HETATM   25  O   UNK     0     -48.437  -1.081  13.742  0.00  0.00    -0.357 OA
HETATM   26  H   UNK     0     -49.381  -1.281  13.656  0.00  0.00     0.217 HD
ENDBRANCH  17  25
BRANCH  18  27
HETATM   27  O   UNK     0     -46.060  -0.222  14.770  0.00  0.00    -0.356 OA
HETATM   28  H   UNK     0     -46.653   0.168  14.105  0.00  0.00     0.218 HD
ENDBRANCH  18  27
ENDBRANCH   7   8
ENDBRANCH   5   7
BRANCH   6  29
HETATM   29  C   UNK     0     -46.682   1.753  19.570  0.00  0.00     0.172 C 
HETATM   30  O   UNK     0     -46.843   2.600  20.436  0.00  0.00    -0.648 OA
BRANCH  29  31
HETATM   31  O   UNK     0     -47.303   1.765  18.366  0.00  0.00    -0.774 OA
HETATM   32  H   UNK     0     -47.918   2.525  18.277  0.00  0.00     0.167 HD
ENDBRANCH  29  31
ENDBRANCH   6  29
BRANCH   3  33
HETATM   33  O   UNK     0     -42.742  -2.031  18.664  0.00  0.00    -0.388 OA
HETATM   34  H   UNK     0     -41.858  -1.850  18.304  0.00  0.00     0.210 HD
ENDBRANCH   3  33
BRANCH   4  35
HETATM   35  O   UNK     0     -44.514   1.333  21.574  0.00  0.00    -0.390 OA
HETATM   36  H   UNK     0     -43.692   1.070  22.021  0.00  0.00     0.210 HD
ENDBRANCH   4  35
BRANCH   2  37
HETATM   37  O   UNK     0     -42.101   0.332  20.301  0.00  0.00    -0.390 OA
HETATM   38  H   UNK     0     -42.099   0.733  21.185  0.00  0.00     0.210 HD
ENDBRANCH   2  37
TORSDOF 10
ENDMDL
MODEL 7
REMARK VINA RESULT:      -6.6      3.391      5.857
REMARK  10 active torsions:
REMARK  status: ('A' for Active; 'I' for Inactive)
REMARK    1  A    between atoms: O_2  and  C_15 
REMARK    2  A    between atoms: O_2  and  C_18 
REMARK    3  A    between atoms: O_3  and  C_12 
REMARK    4  A    between atoms: O_4  and  C_13 
REMARK    5  A    between atoms: O_5  and  C_14 
REMARK    6  A    between atoms: O_6  and  C_17 
REMARK    7  A    between atoms: O_9  and  C_20 
REMARK    8  A    between atoms: O_10  and  C_23 
REMARK    9  A    between atoms: C_16  and  C_17 
REMARK   10  A    between atoms: C_25  and  C_27 
ROOT
HETATM    1  O   UNK     0     -49.089  -1.125  16.693  0.00  0.00    -0.340 OA
HETATM    2  C   UNK     0     -48.390  -1.895  14.015  0.00  0.00     0.183 C 
HETATM    3  C   UNK     0     -47.672  -2.457  15.242  0.00  0.00     0.205 C 
HETATM    4  C   UNK     0     -49.778  -1.364  14.374  0.00  0.00     0.189 C 
HETATM    5  C   UNK     0     -47.737  -1.480  16.416  0.00  0.00     0.299 C 
HETATM    6  C   UNK     0     -49.709  -0.459  15.599  0.00  0.00     0.253 C 
ENDROOT
BRANCH   5   7
HETATM    7  O   UNK     0     -47.163  -2.122  17.555  0.00  0.00    -0.315 OA
BRANCH   7   8
HETATM    8  C   UNK     0     -46.197  -1.430  18.225  0.00  0.00     0.110 A 
HETATM    9  C   UNK     0     -46.567  -0.391  19.078  0.00  0.00     0.078 A 
HETATM   10  C   UNK     0     -45.586   0.323  19.768  0.00  0.00     0.096 A 
HETATM   11  O   UNK     0     -46.010   1.335  20.591  0.00  0.00    -0.309 OA
HETATM   12  C   UNK     0     -44.241  -0.004  19.601  0.00  0.00     0.084 A 
HETATM   13  C   UNK     0     -45.058   2.057  21.294  0.00  0.00     0.090 A 
HETATM   14  C   UNK     0     -43.736   1.842  21.215  0.00  0.00     0.094 A 
HETATM   15  C   UNK     0     -43.228   0.766  20.339  0.00  0.00     0.190 A 
HETATM   16  O   UNK     0     -42.030   0.536  20.240  0.00  0.00    -0.287 OA
HETATM   17  C   UNK     0     -43.867  -1.044  18.748  0.00  0.00     0.118 A 
HETATM   18  C   UNK     0     -44.850  -1.756  18.061  0.00  0.00     0.134 A 
BRANCH  13  19
HETATM   19  C   UNK     0     -45.622   3.123  22.146  0.00  0.00    -0.002 A 
HETATM   20  C   UNK     0     -44.796   3.833  23.022  0.00  0.00     0.014 A 
HETATM   21  C   UNK     0     -45.329   4.841  23.825  0.00  0.00     0.001 A 
HETATM   22  C   UNK     0     -46.689   5.143  23.756  0.00  0.00     0.000 A 
HETATM   23  C   UNK     0     -47.517   4.437  22.884  0.00  0.00     0.001 A 
HETATM   24  C   UNK     0     -46.984   3.428  22.080  0.00  0.00     0.014 A 
ENDBRANCH  13  19
BRANCH  17  25
HETATM   25  O   UNK     0     -42.562  -1.392  18.562  0.00  0.00    -0.357 OA
HETATM   26  H   UNK     0     -41.970  -0.739  18.966  0.00  0.00     0.217 HD
ENDBRANCH  17  25
BRANCH  18  27
HETATM   27  O   UNK     0     -44.496  -2.775  17.224  0.00  0.00    -0.356 OA
HETATM   28  H   UNK     0     -45.297  -3.280  16.998  0.00  0.00     0.218 HD
ENDBRANCH  18  27
ENDBRANCH   7   8
ENDBRANCH   5   7
BRANCH   6  29
HETATM   29  C   UNK     0     -51.077  -0.152  16.114  0.00  0.00     0.172 C 
HETATM   30  O   UNK     0     -51.351   0.762  16.878  0.00  0.00    -0.648 OA
BRANCH  29  31
HETATM   31  O   UNK     0     -51.983  -1.031  15.622  0.00  0.00    -0.774 OA
HETATM   32  H   UNK     0     -51.873  -1.926  16.008  0.00  0.00     0.167 HD
ENDBRANCH  29  31
ENDBRANCH   6  29
BRANCH   3  33
HETATM   33  O   UNK     0     -46.299  -2.686  14.924  0.00  0.00    -0.388 OA
HETATM   34  H   UNK     0     -46.073  -3.583  15.220  0.00  0.00     0.210 HD
ENDBRANCH   3  33
BRANCH   4  35
HETATM   35  O   UNK     0     -50.288  -0.610  13.276  0.00  0.00    -0.390 OA
HETATM   36  H   UNK     0     -50.306   0.327  13.537  0.00  0.00     0.210 HD
ENDBRANCH   4  35
BRANCH   2  37
HETATM   37  O   UNK     0     -48.551  -2.929  13.042  0.00  0.00    -0.390 OA
HETATM   38  H   UNK     0     -47.851  -3.586  13.191  0.00  0.00     0.210 HD
ENDBRANCH   2  37
TORSDOF 10
ENDMDL
MODEL 8
REMARK VINA RESULT:      -6.6      1.896      2.668
REMARK  10 active torsions:
REMARK  status: ('A' for Active; 'I' for Inactive)
REMARK    1  A    between atoms: O_2  and  C_15 
REMARK    2  A    between atoms: O_2  and  C_18 
REMARK    3  A    between atoms: O_3  and  C_12 
REMARK    4  A    between atoms: O_4  and  C_13 
REMARK    5  A    between atoms: O_5  and  C_14 
REMARK    6  A    between atoms: O_6  and  C_17 
REMARK    7  A    between atoms: O_9  and  C_20 
REMARK    8  A    between atoms: O_10  and  C_23 
REMARK    9  A    between atoms: C_16  and  C_17 
REMARK   10  A    between atoms: C_25  and  C_27 
ROOT
HETATM    1  O   UNK     0     -52.396   1.523  16.756  0.00  0.00    -0.340 OA
HETATM    2  C   UNK     0     -52.289   2.734  14.152  0.00  0.00     0.183 C 
HETATM    3  C   UNK     0     -51.869   1.285  14.399  0.00  0.00     0.205 C 
HETATM    4  C   UNK     0     -53.229   3.237  15.247  0.00  0.00     0.189 C 
HETATM    5  C   UNK     0     -51.397   1.084  15.839  0.00  0.00     0.299 C 
HETATM    6  C   UNK     0     -52.673   2.914  16.629  0.00  0.00     0.253 C 
ENDROOT
BRANCH   5   7
HETATM    7  O   UNK     0     -51.147  -0.310  16.030  0.00  0.00    -0.315 OA
BRANCH   7   8
HETATM    8  C   UNK     0     -49.866  -0.733  15.832  0.00  0.00     0.110 A 
HETATM    9  C   UNK     0     -48.856  -0.279  16.681  0.00  0.00     0.078 A 
HETATM   10  C   UNK     0     -47.542  -0.707  16.487  0.00  0.00     0.096 A 
HETATM   11  O   UNK     0     -46.593  -0.226  17.352  0.00  0.00    -0.309 OA
HETATM   12  C   UNK     0     -47.242  -1.585  15.446  0.00  0.00     0.084 A 
HETATM   13  C   UNK     0     -45.279  -0.640  17.188  0.00  0.00     0.090 A 
HETATM   14  C   UNK     0     -44.865  -1.476  16.223  0.00  0.00     0.094 A 
HETATM   15  C   UNK     0     -45.849  -2.018  15.263  0.00  0.00     0.190 A 
HETATM   16  O   UNK     0     -45.513  -2.785  14.370  0.00  0.00    -0.287 OA
HETATM   17  C   UNK     0     -48.251  -2.042  14.594  0.00  0.00     0.118 A 
HETATM   18  C   UNK     0     -49.563  -1.613  14.791  0.00  0.00     0.134 A 
BRANCH  13  19
HETATM   19  C   UNK     0     -44.340  -0.059  18.169  0.00  0.00    -0.002 A 
HETATM   20  C   UNK     0     -43.344  -0.854  18.742  0.00  0.00     0.014 A 
HETATM   21  C   UNK     0     -42.457  -0.305  19.668  0.00  0.00     0.001 A 
HETATM   22  C   UNK     0     -42.561   1.039  20.023  0.00  0.00     0.000 A 
HETATM   23  C   UNK     0     -43.555   1.836  19.453  0.00  0.00     0.001 A 
HETATM   24  C   UNK     0     -44.442   1.287  18.527  0.00  0.00     0.014 A 
ENDBRANCH  13  19
BRANCH  17  25
HETATM   25  O   UNK     0     -47.994  -2.901  13.567  0.00  0.00    -0.357 OA
HETATM   26  H   UNK     0     -48.097  -3.821  13.854  0.00  0.00     0.217 HD
ENDBRANCH  17  25
BRANCH  18  27
HETATM   27  O   UNK     0     -50.557  -2.052  13.965  0.00  0.00    -0.356 OA
HETATM   28  H   UNK     0     -51.033  -2.773  14.413  0.00  0.00     0.218 HD
ENDBRANCH  18  27
ENDBRANCH   7   8
ENDBRANCH   5   7
BRANCH   6  29
HETATM   29  C   UNK     0     -53.696   3.158  17.689  0.00  0.00     0.172 C 
HETATM   30  O   UNK     0     -54.353   2.290  18.245  0.00  0.00    -0.648 OA
BRANCH  29  31
HETATM   31  O   UNK     0     -53.804   4.483  17.953  0.00  0.00    -0.774 OA
HETATM   32  H   UNK     0     -54.083   4.651  18.879  0.00  0.00     0.167 HD
ENDBRANCH  29  31
ENDBRANCH   6  29
BRANCH   3  33
HETATM   33  O   UNK     0     -50.793   0.947  13.524  0.00  0.00    -0.388 OA
HETATM   34  H   UNK     0     -50.691   1.674  12.887  0.00  0.00     0.210 HD
ENDBRANCH   3  33
BRANCH   4  35
HETATM   35  O   UNK     0     -53.368   4.652  15.130  0.00  0.00    -0.390 OA
HETATM   36  H   UNK     0     -53.448   5.022  16.025  0.00  0.00     0.210 HD
ENDBRANCH   4  35
BRANCH   2  37
HETATM   37  O   UNK     0     -52.975   2.825  12.903  0.00  0.00    -0.390 OA
HETATM   38  H   UNK     0     -52.772   2.022  12.396  0.00  0.00     0.210 HD
ENDBRANCH   2  37
TORSDOF 10
ENDMDL
MODEL 9
REMARK VINA RESULT:      -6.5      1.475      3.307
REMARK  10 active torsions:
REMARK  status: ('A' for Active; 'I' for Inactive)
REMARK    1  A    between atoms: O_2  and  C_15 
REMARK    2  A    between atoms: O_2  and  C_18 
REMARK    3  A    between atoms: O_3  and  C_12 
REMARK    4  A    between atoms: O_4  and  C_13 
REMARK    5  A    between atoms: O_5  and  C_14 
REMARK    6  A    between atoms: O_6  and  C_17 
REMARK    7  A    between atoms: O_9  and  C_20 
REMARK    8  A    between atoms: O_10  and  C_23 
REMARK    9  A    between atoms: C_16  and  C_17 
REMARK   10  A    between atoms: C_25  and  C_27 
ROOT
HETATM    1  O   UNK     0     -50.850   2.257  13.294  0.00  0.00    -0.340 OA
HETATM    2  C   UNK     0     -52.725   4.222  12.356  0.00  0.00     0.183 C 
HETATM    3  C   UNK     0     -52.923   3.461  13.668  0.00  0.00     0.205 C 
HETATM    4  C   UNK     0     -51.257   4.228  11.931  0.00  0.00     0.189 C 
HETATM    5  C   UNK     0     -52.227   2.101  13.628  0.00  0.00     0.299 C 
HETATM    6  C   UNK     0     -50.668   2.824  12.001  0.00  0.00     0.253 C 
ENDROOT
BRANCH   5   7
HETATM    7  O   UNK     0     -52.344   1.508  14.922  0.00  0.00    -0.315 OA
BRANCH   7   8
HETATM    8  C   UNK     0     -51.608   0.382  15.147  0.00  0.00     0.110 A 
HETATM    9  C   UNK     0     -50.322   0.500  15.675  0.00  0.00     0.078 A 
HETATM   10  C   UNK     0     -49.560  -0.646  15.910  0.00  0.00     0.096 A 
HETATM   11  O   UNK     0     -48.304  -0.467  16.429  0.00  0.00    -0.309 OA
HETATM   12  C   UNK     0     -50.086  -1.903  15.616  0.00  0.00     0.084 A 
HETATM   13  C   UNK     0     -47.527  -1.588  16.679  0.00  0.00     0.090 A 
HETATM   14  C   UNK     0     -47.918  -2.848  16.434  0.00  0.00     0.094 A 
HETATM   15  C   UNK     0     -49.261  -3.094  15.871  0.00  0.00     0.190 A 
HETATM   16  O   UNK     0     -49.656  -4.227  15.635  0.00  0.00    -0.287 OA
HETATM   17  C   UNK     0     -51.373  -2.025  15.087  0.00  0.00     0.118 A 
HETATM   18  C   UNK     0     -52.132  -0.878  14.854  0.00  0.00     0.134 A 
BRANCH  13  19
HETATM   19  C   UNK     0     -46.192  -1.282  17.233  0.00  0.00    -0.002 A 
HETATM   20  C   UNK     0     -45.255  -2.303  17.410  0.00  0.00     0.014 A 
HETATM   21  C   UNK     0     -43.994  -2.013  17.932  0.00  0.00     0.001 A 
HETATM   22  C   UNK     0     -43.666  -0.702  18.277  0.00  0.00     0.000 A 
HETATM   23  C   UNK     0     -44.599   0.320  18.102  0.00  0.00     0.001 A 
HETATM   24  C   UNK     0     -45.860   0.030  17.580  0.00  0.00     0.014 A 
ENDBRANCH  13  19
BRANCH  17  25
HETATM   25  O   UNK     0     -51.919  -3.238  14.788  0.00  0.00    -0.357 OA
HETATM   26  H   UNK     0     -52.880  -3.167  14.683  0.00  0.00     0.217 HD
ENDBRANCH  17  25
BRANCH  18  27
HETATM   27  O   UNK     0     -53.391  -0.985  14.337  0.00  0.00    -0.356 OA
HETATM   28  H   UNK     0     -53.965  -0.343  14.790  0.00  0.00     0.218 HD
ENDBRANCH  18  27
ENDBRANCH   7   8
ENDBRANCH   5   7
BRANCH   6  29
HETATM   29  C   UNK     0     -49.182   2.859  11.847  0.00  0.00     0.172 C 
HETATM   30  O   UNK     0     -48.459   1.875  11.792  0.00  0.00    -0.648 OA
BRANCH  29  31
HETATM   31  O   UNK     0     -48.737   4.137  11.780  0.00  0.00    -0.774 OA
HETATM   32  H   UNK     0     -49.325   4.702  11.234  0.00  0.00     0.167 HD
ENDBRANCH  29  31
ENDBRANCH   6  29
BRANCH   3  33
HETATM   33  O   UNK     0     -54.318   3.244  13.883  0.00  0.00    -0.388 OA
HETATM   34  H   UNK     0     -54.786   4.052  13.617  0.00  0.00     0.210 HD
ENDBRANCH   3  33
BRANCH   4  35
HETATM   35  O   UNK     0     -51.161   4.698  10.588  0.00  0.00    -0.390 OA
HETATM   36  H   UNK     0     -50.511   5.420  10.567  0.00  0.00     0.210 HD
ENDBRANCH   4  35
BRANCH   2  37
HETATM   37  O   UNK     0     -53.142   5.578  12.525  0.00  0.00    -0.390 OA
HETATM   38  H   UNK     0     -53.668   5.625  13.340  0.00  0.00     0.210 HD
ENDBRANCH   2  37
TORSDOF 10
ENDMDL
MODEL 10
REMARK VINA RESULT:      -6.4      7.018     12.169
REMARK  10 active torsions:
REMARK  status: ('A' for Active; 'I' for Inactive)
REMARK    1  A    between atoms: O_2  and  C_15 
REMARK    2  A    between atoms: O_2  and  C_18 
REMARK    3  A    between atoms: O_3  and  C_12 
REMARK    4  A    between atoms: O_4  and  C_13 
REMARK    5  A    between atoms: O_5  and  C_14 
REMARK    6  A    between atoms: O_6  and  C_17 
REMARK    7  A    between atoms: O_9  and  C_20 
REMARK    8  A    between atoms: O_10  and  C_23 
REMARK    9  A    between atoms: C_16  and  C_17 
REMARK   10  A    between atoms: C_25  and  C_27 
ROOT
HETATM    1  O   UNK     0     -53.405   3.422  11.711  0.00  0.00    -0.340 OA
HETATM    2  C   UNK     0     -52.013   5.505  10.305  0.00  0.00     0.183 C 
HETATM    3  C   UNK     0     -53.503   5.232  10.099  0.00  0.00     0.205 C 
HETATM    4  C   UNK     0     -51.528   4.965  11.650  0.00  0.00     0.189 C 
HETATM    5  C   UNK     0     -53.845   3.773  10.402  0.00  0.00     0.299 C 
HETATM    6  C   UNK     0     -51.993   3.528  11.855  0.00  0.00     0.253 C 
ENDROOT
BRANCH   5   7
HETATM    7  O   UNK     0     -55.263   3.625  10.314  0.00  0.00    -0.315 OA
BRANCH   7   8
HETATM    8  C   UNK     0     -55.724   2.450   9.798  0.00  0.00     0.110 A 
HETATM    9  C   UNK     0     -56.003   2.364   8.434  0.00  0.00     0.078 A 
HETATM   10  C   UNK     0     -56.475   1.166   7.896  0.00  0.00     0.096 A 
HETATM   11  O   UNK     0     -56.733   1.143   6.550  0.00  0.00    -0.309 OA
HETATM   12  C   UNK     0     -56.665   0.060   8.722  0.00  0.00     0.084 A 
HETATM   13  C   UNK     0     -57.196  -0.037   5.986  0.00  0.00     0.090 A 
HETATM   14  C   UNK     0     -57.423  -1.165   6.675  0.00  0.00     0.094 A 
HETATM   15  C   UNK     0     -57.164  -1.190   8.129  0.00  0.00     0.190 A 
HETATM   16  O   UNK     0     -57.357  -2.200   8.795  0.00  0.00    -0.287 OA
HETATM   17  C   UNK     0     -56.385   0.141  10.088  0.00  0.00     0.118 A 
HETATM   18  C   UNK     0     -55.914   1.340  10.623  0.00  0.00     0.134 A 
BRANCH  13  19
HETATM   19  C   UNK     0     -57.445   0.050   4.533  0.00  0.00    -0.002 A 
HETATM   20  C   UNK     0     -56.999   1.160   3.809  0.00  0.00     0.014 A 
HETATM   21  C   UNK     0     -57.234   1.241   2.436  0.00  0.00     0.001 A 
HETATM   22  C   UNK     0     -57.914   0.214   1.783  0.00  0.00     0.000 A 
HETATM   23  C   UNK     0     -58.361  -0.895   2.502  0.00  0.00     0.001 A 
HETATM   24  C   UNK     0     -58.126  -0.976   3.875  0.00  0.00     0.014 A 
ENDBRANCH  13  19
BRANCH  17  25
HETATM   25  O   UNK     0     -56.559  -0.920  10.926  0.00  0.00    -0.357 OA
HETATM   26  H   UNK     0     -56.709  -0.621  11.836  0.00  0.00     0.217 HD
ENDBRANCH  17  25
BRANCH  18  27
HETATM   27  O   UNK     0     -55.638   1.432  11.957  0.00  0.00    -0.356 OA
HETATM   28  H   UNK     0     -54.984   0.748  12.183  0.00  0.00     0.218 HD
ENDBRANCH  18  27
ENDBRANCH   7   8
ENDBRANCH   5   7
BRANCH   6  29
HETATM   29  C   UNK     0     -51.756   3.084  13.261  0.00  0.00     0.172 C 
HETATM   30  O   UNK     0     -51.444   1.951  13.597  0.00  0.00    -0.648 OA
BRANCH  29  31
HETATM   31  O   UNK     0     -51.939   4.112  14.125  0.00  0.00    -0.774 OA
HETATM   32  H   UNK     0     -52.886   4.351  14.217  0.00  0.00     0.167 HD
ENDBRANCH  29  31
ENDBRANCH   6  29
BRANCH   3  33
HETATM   33  O   UNK     0     -53.850   5.500   8.740  0.00  0.00    -0.388 OA
HETATM   34  H   UNK     0     -54.644   4.980   8.530  0.00  0.00     0.210 HD
ENDBRANCH   3  33
BRANCH   4  35
HETATM   35  O   UNK     0     -50.103   4.993  11.678  0.00  0.00    -0.390 OA
HETATM   36  H   UNK     0     -49.826   5.474  12.476  0.00  0.00     0.210 HD
ENDBRANCH   4  35
BRANCH   2  37
HETATM   37  O   UNK     0     -51.780   6.915  10.285  0.00  0.00    -0.390 OA
HETATM   38  H   UNK     0     -51.414   7.165  11.149  0.00  0.00     0.210 HD
ENDBRANCH   2  37
TORSDOF 10
ENDMDL
