MODEL 1
REMARK VINA RESULT:      -5.6      0.000      0.000
REMARK  7 active torsions:
REMARK  status: ('A' for Active; 'I' for Inactive)
REMARK    1  A    between atoms: O_2  and  C_10 
REMARK    2  A    between atoms: O_3  and  C_11 
REMARK    3  A    between atoms: O_4  and  C_14 
REMARK    4  A    between atoms: O_6  and  N_9 
REMARK    5  A    between atoms: N_7  and  C_12 
REMARK    6  A    between atoms: N_9  and  C_18 
REMARK    7  A    between atoms: C_13  and  C_14 
ROOT
HETATM    1  O   UNK     0     -45.812  -0.762  19.042  0.00  0.00    -0.353 OA
HETATM    2  C   UNK     0     -43.917  -1.455  17.799  0.00  0.00     0.198 C 
HETATM    3  C   UNK     0     -43.443  -0.773  19.065  0.00  0.00     0.182 C 
HETATM    4  C   UNK     0     -45.359  -1.785  18.140  0.00  0.00     0.264 C 
HETATM    5  C   UNK     0     -44.677   0.014  19.484  0.00  0.00     0.179 C 
ENDROOT
BRANCH   4   6
HETATM    6  N   UNK     0     -46.208  -1.796  16.983  0.00  0.00    -0.278 N 
HETATM    7  C   UNK     0     -46.138  -0.732  16.097  0.00  0.00     0.102 A 
HETATM    8  C   UNK     0     -46.886  -0.660  14.998  0.00  0.00     0.070 A 
HETATM    9  C   UNK     0     -47.820  -1.791  14.759  0.00  0.00     0.153 A 
HETATM   10  N   UNK     0     -47.899  -2.800  15.585  0.00  0.00    -0.174 NA
HETATM   11  C   UNK     0     -47.111  -2.858  16.722  0.00  0.00     0.352 A 
HETATM   12  O   UNK     0     -47.197  -3.818  17.489  0.00  0.00    -0.244 OA
BRANCH   9  13
HETATM   13  N   UNK     0     -48.613  -1.754  13.636  0.00  0.00    -0.251 N 
HETATM   14  H   UNK     0     -49.137  -0.959  13.288  0.00  0.00     0.196 HD
BRANCH  13  15
HETATM   15  O   UNK     0     -48.574  -2.904  12.903  0.00  0.00    -0.288 OA
HETATM   16  H   UNK     0     -49.516  -3.125  12.824  0.00  0.00     0.244 HD
ENDBRANCH  13  15
ENDBRANCH   9  13
ENDBRANCH   4   6
BRANCH   5  17
HETATM   17  C   UNK     0     -44.762   1.390  18.836  0.00  0.00     0.198 C 
BRANCH  17  18
HETATM   18  O   UNK     0     -46.126   1.707  18.623  0.00  0.00    -0.398 OA
HETATM   19  H   UNK     0     -46.317   2.510  19.137  0.00  0.00     0.209 HD
ENDBRANCH  17  18
ENDBRANCH   5  17
BRANCH   2  20
HETATM   20  O   UNK     0     -43.155  -2.605  17.491  0.00  0.00    -0.388 OA
HETATM   21  H   UNK     0     -42.217  -2.367  17.587  0.00  0.00     0.210 HD
ENDBRANCH   2  20
BRANCH   3  22
HETATM   22  O   UNK     0     -43.175  -1.742  20.079  0.00  0.00    -0.390 OA
HETATM   23  H   UNK     0     -43.974  -1.870  20.615  0.00  0.00     0.210 HD
ENDBRANCH   3  22
TORSDOF 7
ENDMDL
MODEL 2
REMARK VINA RESULT:      -5.5      1.875      2.277
REMARK  7 active torsions:
REMARK  status: ('A' for Active; 'I' for Inactive)
REMARK    1  A    between atoms: O_2  and  C_10 
REMARK    2  A    between atoms: O_3  and  C_11 
REMARK    3  A    between atoms: O_4  and  C_14 
REMARK    4  A    between atoms: O_6  and  N_9 
REMARK    5  A    between atoms: N_7  and  C_12 
REMARK    6  A    between atoms: N_9  and  C_18 
REMARK    7  A    between atoms: C_13  and  C_14 
ROOT
HETATM    1  O   UNK     0     -46.307  -1.989  17.773  0.00  0.00    -0.353 OA
HETATM    2  C   UNK     0     -45.131  -1.418  15.798  0.00  0.00     0.198 C 
HETATM    3  C   UNK     0     -44.210  -1.224  16.983  0.00  0.00     0.182 C 
HETATM    4  C   UNK     0     -46.206  -2.319  16.379  0.00  0.00     0.264 C 
HETATM    5  C   UNK     0     -45.194  -1.147  18.142  0.00  0.00     0.179 C 
ENDROOT
BRANCH   4   6
HETATM    6  N   UNK     0     -47.484  -2.118  15.758  0.00  0.00    -0.278 N 
HETATM    7  C   UNK     0     -47.695  -0.957  15.029  0.00  0.00     0.102 A 
HETATM    8  C   UNK     0     -48.847  -0.689  14.419  0.00  0.00     0.070 A 
HETATM    9  C   UNK     0     -49.921  -1.708  14.557  0.00  0.00     0.153 A 
HETATM   10  N   UNK     0     -49.739  -2.806  15.241  0.00  0.00    -0.174 NA
HETATM   11  C   UNK     0     -48.532  -3.068  15.867  0.00  0.00     0.352 A 
HETATM   12  O   UNK     0     -48.377  -4.110  16.506  0.00  0.00    -0.244 OA
BRANCH   9  13
HETATM   13  N   UNK     0     -51.129  -1.468  13.944  0.00  0.00    -0.251 N 
HETATM   14  H   UNK     0     -51.759  -2.158  13.554  0.00  0.00     0.196 HD
BRANCH  13  15
HETATM   15  O   UNK     0     -51.507  -0.157  13.980  0.00  0.00    -0.288 OA
HETATM   16  H   UNK     0     -52.392  -0.192  13.580  0.00  0.00     0.244 HD
ENDBRANCH  13  15
ENDBRANCH   9  13
ENDBRANCH   4   6
BRANCH   5  17
HETATM   17  C   UNK     0     -45.724   0.260  18.389  0.00  0.00     0.198 C 
BRANCH  17  18
HETATM   18  O   UNK     0     -44.685   1.187  18.134  0.00  0.00    -0.398 OA
HETATM   19  H   UNK     0     -44.471   1.617  18.980  0.00  0.00     0.209 HD
ENDBRANCH  17  18
ENDBRANCH   5  17
BRANCH   2  20
HETATM   20  O   UNK     0     -44.469  -2.004  14.695  0.00  0.00    -0.388 OA
HETATM   21  H   UNK     0     -45.099  -2.602  14.260  0.00  0.00     0.210 HD
ENDBRANCH   2  20
BRANCH   3  22
HETATM   22  O   UNK     0     -43.396  -2.382  17.173  0.00  0.00    -0.390 OA
HETATM   23  H   UNK     0     -42.470  -2.153  16.988  0.00  0.00     0.210 HD
ENDBRANCH   3  22
TORSDOF 7
ENDMDL
MODEL 3
REMARK VINA RESULT:      -5.3      2.477      3.188
REMARK  7 active torsions:
REMARK  status: ('A' for Active; 'I' for Inactive)
REMARK    1  A    between atoms: O_2  and  C_10 
REMARK    2  A    between atoms: O_3  and  C_11 
REMARK    3  A    between atoms: O_4  and  C_14 
REMARK    4  A    between atoms: O_6  and  N_9 
REMARK    5  A    between atoms: N_7  and  C_12 
REMARK    6  A    between atoms: N_9  and  C_18 
REMARK    7  A    between atoms: C_13  and  C_14 
ROOT
HETATM    1  O   UNK     0     -46.362  -2.219  17.842  0.00  0.00    -0.353 OA
HETATM    2  C   UNK     0     -46.019  -2.115  15.500  0.00  0.00     0.198 C 
HETATM    3  C   UNK     0     -44.982  -1.248  16.181  0.00  0.00     0.182 C 
HETATM    4  C   UNK     0     -46.489  -2.999  16.642  0.00  0.00     0.264 C 
HETATM    5  C   UNK     0     -45.602  -1.026  17.554  0.00  0.00     0.179 C 
ENDROOT
BRANCH   4   6
HETATM    6  N   UNK     0     -47.858  -3.406  16.493  0.00  0.00    -0.278 N 
HETATM    7  C   UNK     0     -48.690  -2.657  15.675  0.00  0.00     0.102 A 
HETATM    8  C   UNK     0     -49.970  -2.962  15.478  0.00  0.00     0.070 A 
HETATM    9  C   UNK     0     -50.480  -4.163  16.188  0.00  0.00     0.153 A 
HETATM   10  N   UNK     0     -49.709  -4.880  16.963  0.00  0.00    -0.174 NA
HETATM   11  C   UNK     0     -48.379  -4.547  17.154  0.00  0.00     0.352 A 
HETATM   12  O   UNK     0     -47.666  -5.235  17.886  0.00  0.00    -0.244 OA
BRANCH   9  13
HETATM   13  N   UNK     0     -51.800  -4.512  16.013  0.00  0.00    -0.251 N 
HETATM   14  H   UNK     0     -52.610  -3.934  16.202  0.00  0.00     0.196 HD
BRANCH  13  15
HETATM   15  O   UNK     0     -51.967  -5.735  15.432  0.00  0.00    -0.288 OA
HETATM   16  H   UNK     0     -52.935  -5.807  15.391  0.00  0.00     0.244 HD
ENDBRANCH  13  15
ENDBRANCH   9  13
ENDBRANCH   4   6
BRANCH   5  17
HETATM   17  C   UNK     0     -46.552   0.164  17.600  0.00  0.00     0.198 C 
BRANCH  17  18
HETATM   18  O   UNK     0     -45.904   1.234  18.264  0.00  0.00    -0.398 OA
HETATM   19  H   UNK     0     -46.433   1.442  19.054  0.00  0.00     0.209 HD
ENDBRANCH  17  18
ENDBRANCH   5  17
BRANCH   2  20
HETATM   20  O   UNK     0     -45.478  -2.857  14.426  0.00  0.00    -0.388 OA
HETATM   21  H   UNK     0     -45.849  -3.754  14.474  0.00  0.00     0.210 HD
ENDBRANCH   2  20
BRANCH   3  22
HETATM   22  O   UNK     0     -43.767  -1.977  16.360  0.00  0.00    -0.390 OA
HETATM   23  H   UNK     0     -43.232  -1.539  17.041  0.00  0.00     0.210 HD
ENDBRANCH   3  22
TORSDOF 7
ENDMDL
MODEL 4
REMARK VINA RESULT:      -5.3      7.938     10.433
REMARK  7 active torsions:
REMARK  status: ('A' for Active; 'I' for Inactive)
REMARK    1  A    between atoms: O_2  and  C_10 
REMARK    2  A    between atoms: O_3  and  C_11 
REMARK    3  A    between atoms: O_4  and  C_14 
REMARK    4  A    between atoms: O_6  and  N_9 
REMARK    5  A    between atoms: N_7  and  C_12 
REMARK    6  A    between atoms: N_9  and  C_18 
REMARK    7  A    between atoms: C_13  and  C_14 
ROOT
HETATM    1  O   UNK     0     -53.103   5.091  11.451  0.00  0.00    -0.353 OA
HETATM    2  C   UNK     0     -51.695   6.520  12.713  0.00  0.00     0.198 C 
HETATM    3  C   UNK     0     -52.864   7.328  12.191  0.00  0.00     0.182 C 
HETATM    4  C   UNK     0     -52.210   5.098  12.578  0.00  0.00     0.264 C 
HETATM    5  C   UNK     0     -53.377   6.452  11.056  0.00  0.00     0.179 C 
ENDROOT
BRANCH   4   6
HETATM    6  N   UNK     0     -51.156   4.152  12.344  0.00  0.00    -0.278 N 
HETATM    7  C   UNK     0     -49.989   4.593  11.739  0.00  0.00     0.102 A 
HETATM    8  C   UNK     0     -48.961   3.787  11.485  0.00  0.00     0.070 A 
HETATM    9  C   UNK     0     -49.122   2.365  11.886  0.00  0.00     0.153 A 
HETATM   10  N   UNK     0     -50.215   1.933  12.456  0.00  0.00    -0.174 NA
HETATM   11  C   UNK     0     -51.274   2.788  12.713  0.00  0.00     0.352 A 
HETATM   12  O   UNK     0     -52.296   2.365  13.254  0.00  0.00    -0.244 OA
BRANCH   9  13
HETATM   13  N   UNK     0     -48.082   1.498  11.639  0.00  0.00    -0.251 N 
HETATM   14  H   UNK     0     -47.428   1.538  10.867  0.00  0.00     0.196 HD
BRANCH  13  15
HETATM   15  O   UNK     0     -47.905   0.567  12.621  0.00  0.00    -0.288 OA
HETATM   16  H   UNK     0     -48.406  -0.190  12.274  0.00  0.00     0.244 HD
ENDBRANCH  13  15
ENDBRANCH   9  13
ENDBRANCH   4   6
BRANCH   5  17
HETATM   17  C   UNK     0     -52.672   6.711   9.730  0.00  0.00     0.198 C 
BRANCH  17  18
HETATM   18  O   UNK     0     -52.264   5.470   9.184  0.00  0.00    -0.398 OA
HETATM   19  H   UNK     0     -52.578   4.775   9.788  0.00  0.00     0.209 HD
ENDBRANCH  17  18
ENDBRANCH   5  17
BRANCH   2  20
HETATM   20  O   UNK     0     -51.364   6.854  14.045  0.00  0.00    -0.388 OA
HETATM   21  H   UNK     0     -51.680   7.759  14.207  0.00  0.00     0.210 HD
ENDBRANCH   2  20
BRANCH   3  22
HETATM   22  O   UNK     0     -53.890   7.410  13.180  0.00  0.00    -0.390 OA
HETATM   23  H   UNK     0     -54.139   8.341  13.303  0.00  0.00     0.210 HD
ENDBRANCH   3  22
TORSDOF 7
ENDMDL
MODEL 5
REMARK VINA RESULT:      -5.3      2.155      5.521
REMARK  7 active torsions:
REMARK  status: ('A' for Active; 'I' for Inactive)
REMARK    1  A    between atoms: O_2  and  C_10 
REMARK    2  A    between atoms: O_3  and  C_11 
REMARK    3  A    between atoms: O_4  and  C_14 
REMARK    4  A    between atoms: O_6  and  N_9 
REMARK    5  A    between atoms: N_7  and  C_12 
REMARK    6  A    between atoms: N_9  and  C_18 
REMARK    7  A    between atoms: C_13  and  C_14 
ROOT
HETATM    1  O   UNK     0     -48.928  -0.422  15.849  0.00  0.00    -0.353 OA
HETATM    2  C   UNK     0     -48.736  -2.306  14.426  0.00  0.00     0.198 C 
HETATM    3  C   UNK     0     -50.169  -1.817  14.392  0.00  0.00     0.182 C 
HETATM    4  C   UNK     0     -48.004  -1.098  14.981  0.00  0.00     0.264 C 
HETATM    5  C   UNK     0     -50.248  -0.974  15.658  0.00  0.00     0.179 C 
ENDROOT
BRANCH   4   6
HETATM    6  N   UNK     0     -46.837  -1.461  15.734  0.00  0.00    -0.278 N 
HETATM    7  C   UNK     0     -45.687  -0.701  15.588  0.00  0.00     0.102 A 
HETATM    8  C   UNK     0     -44.561  -0.964  16.247  0.00  0.00     0.070 A 
HETATM    9  C   UNK     0     -44.591  -2.133  17.164  0.00  0.00     0.153 A 
HETATM   10  N   UNK     0     -45.666  -2.861  17.313  0.00  0.00    -0.174 NA
HETATM   11  C   UNK     0     -46.829  -2.569  16.620  0.00  0.00     0.352 A 
HETATM   12  O   UNK     0     -47.834  -3.264  16.774  0.00  0.00    -0.244 OA
BRANCH   9  13
HETATM   13  N   UNK     0     -43.446  -2.441  17.863  0.00  0.00    -0.251 N 
HETATM   14  H   UNK     0     -42.993  -3.346  17.918  0.00  0.00     0.196 HD
BRANCH  13  15
HETATM   15  O   UNK     0     -42.853  -1.357  18.442  0.00  0.00    -0.288 OA
HETATM   16  H   UNK     0     -43.117  -0.639  17.842  0.00  0.00     0.244 HD
ENDBRANCH  13  15
ENDBRANCH   9  13
ENDBRANCH   4   6
BRANCH   5  17
HETATM   17  C   UNK     0     -50.608  -1.782  16.898  0.00  0.00     0.198 C 
BRANCH  17  18
HETATM   18  O   UNK     0     -49.823  -1.320  17.983  0.00  0.00    -0.398 OA
HETATM   19  H   UNK     0     -50.322  -0.604  18.412  0.00  0.00     0.209 HD
ENDBRANCH  17  18
ENDBRANCH   5  17
BRANCH   2  20
HETATM   20  O   UNK     0     -48.269  -2.686  13.148  0.00  0.00    -0.388 OA
HETATM   21  H   UNK     0     -48.670  -3.544  12.933  0.00  0.00     0.210 HD
ENDBRANCH   2  20
BRANCH   3  22
HETATM   22  O   UNK     0     -50.370  -0.951  13.274  0.00  0.00    -0.390 OA
HETATM   23  H   UNK     0     -49.508  -0.625  12.967  0.00  0.00     0.210 HD
ENDBRANCH   3  22
TORSDOF 7
ENDMDL
MODEL 6
REMARK VINA RESULT:      -5.3      2.299      5.805
REMARK  7 active torsions:
REMARK  status: ('A' for Active; 'I' for Inactive)
REMARK    1  A    between atoms: O_2  and  C_10 
REMARK    2  A    between atoms: O_3  and  C_11 
REMARK    3  A    between atoms: O_4  and  C_14 
REMARK    4  A    between atoms: O_6  and  N_9 
REMARK    5  A    between atoms: N_7  and  C_12 
REMARK    6  A    between atoms: N_9  and  C_18 
REMARK    7  A    between atoms: C_13  and  C_14 
ROOT
HETATM    1  O   UNK     0     -48.931  -2.068  13.970  0.00  0.00    -0.353 OA
HETATM    2  C   UNK     0     -50.015  -1.824  16.062  0.00  0.00     0.198 C 
HETATM    3  C   UNK     0     -51.030  -1.599  14.962  0.00  0.00     0.182 C 
HETATM    4  C   UNK     0     -48.904  -2.549  15.323  0.00  0.00     0.264 C 
HETATM    5  C   UNK     0     -50.140  -1.306  13.762  0.00  0.00     0.179 C 
ENDROOT
BRANCH   4   6
HETATM    6  N   UNK     0     -47.610  -2.289  15.886  0.00  0.00    -0.278 N 
HETATM    7  C   UNK     0     -46.872  -1.224  15.392  0.00  0.00     0.102 A 
HETATM    8  C   UNK     0     -45.664  -0.909  15.855  0.00  0.00     0.070 A 
HETATM    9  C   UNK     0     -45.130  -1.766  16.945  0.00  0.00     0.153 A 
HETATM   10  N   UNK     0     -45.813  -2.773  17.422  0.00  0.00    -0.174 NA
HETATM   11  C   UNK     0     -47.069  -3.084  16.928  0.00  0.00     0.352 A 
HETATM   12  O   UNK     0     -47.699  -4.036  17.391  0.00  0.00    -0.244 OA
BRANCH   9  13
HETATM   13  N   UNK     0     -43.884  -1.475  17.451  0.00  0.00    -0.251 N 
HETATM   14  H   UNK     0     -43.526  -0.559  17.692  0.00  0.00     0.196 HD
BRANCH  13  15
HETATM   15  O   UNK     0     -43.135  -2.583  17.724  0.00  0.00    -0.288 OA
HETATM   16  H   UNK     0     -43.246  -3.106  16.912  0.00  0.00     0.244 HD
ENDBRANCH  13  15
ENDBRANCH   9  13
ENDBRANCH   4   6
BRANCH   5  17
HETATM   17  C   UNK     0     -49.759   0.164  13.640  0.00  0.00     0.198 C 
BRANCH  17  18
HETATM   18  O   UNK     0     -48.517   0.255  12.966  0.00  0.00    -0.398 OA
HETATM   19  H   UNK     0     -47.863  -0.223  13.505  0.00  0.00     0.209 HD
ENDBRANCH  17  18
ENDBRANCH   5  17
BRANCH   2  20
HETATM   20  O   UNK     0     -50.542  -2.583  17.132  0.00  0.00    -0.388 OA
HETATM   21  H   UNK     0     -51.478  -2.756  16.933  0.00  0.00     0.210 HD
ENDBRANCH   2  20
BRANCH   3  22
HETATM   22  O   UNK     0     -51.745  -2.806  14.694  0.00  0.00    -0.390 OA
HETATM   23  H   UNK     0     -52.158  -3.119  15.516  0.00  0.00     0.210 HD
ENDBRANCH   3  22
TORSDOF 7
ENDMDL
MODEL 7
REMARK VINA RESULT:      -5.2      2.325      5.662
REMARK  7 active torsions:
REMARK  status: ('A' for Active; 'I' for Inactive)
REMARK    1  A    between atoms: O_2  and  C_10 
REMARK    2  A    between atoms: O_3  and  C_11 
REMARK    3  A    between atoms: O_4  and  C_14 
REMARK    4  A    between atoms: O_6  and  N_9 
REMARK    5  A    between atoms: N_7  and  C_12 
REMARK    6  A    between atoms: N_9  and  C_18 
REMARK    7  A    between atoms: C_13  and  C_14 
ROOT
HETATM    1  O   UNK     0     -48.191  -0.247  15.494  0.00  0.00    -0.353 OA
HETATM    2  C   UNK     0     -47.112  -2.341  15.242  0.00  0.00     0.198 C 
HETATM    3  C   UNK     0     -48.482  -2.421  14.602  0.00  0.00     0.182 C 
HETATM    4  C   UNK     0     -46.893  -0.841  15.330  0.00  0.00     0.264 C 
HETATM    5  C   UNK     0     -49.204  -1.245  15.245  0.00  0.00     0.179 C 
ENDROOT
BRANCH   4   6
HETATM    6  N   UNK     0     -46.066  -0.472  16.444  0.00  0.00    -0.278 N 
HETATM    7  C   UNK     0     -46.654   0.166  17.525  0.00  0.00     0.102 A 
HETATM    8  C   UNK     0     -45.965   0.542  18.601  0.00  0.00     0.070 A 
HETATM    9  C   UNK     0     -44.509   0.243  18.590  0.00  0.00     0.153 A 
HETATM   10  N   UNK     0     -43.940  -0.357  17.578  0.00  0.00    -0.174 NA
HETATM   11  C   UNK     0     -44.674  -0.742  16.470  0.00  0.00     0.352 A 
HETATM   12  O   UNK     0     -44.122  -1.309  15.526  0.00  0.00    -0.244 OA
BRANCH   9  13
HETATM   13  N   UNK     0     -43.760   0.618  19.682  0.00  0.00    -0.251 N 
HETATM   14  H   UNK     0     -44.109   0.959  20.569  0.00  0.00     0.196 HD
BRANCH  13  15
HETATM   15  O   UNK     0     -42.423   0.394  19.527  0.00  0.00    -0.288 OA
HETATM   16  H   UNK     0     -42.414  -0.341  18.892  0.00  0.00     0.244 HD
ENDBRANCH  13  15
ENDBRANCH   9  13
ENDBRANCH   4   6
BRANCH   5  17
HETATM   17  C   UNK     0     -49.861  -1.596  16.574  0.00  0.00     0.198 C 
BRANCH  17  18
HETATM   18  O   UNK     0     -50.521  -2.841  16.438  0.00  0.00    -0.398 OA
HETATM   19  H   UNK     0     -49.924  -3.429  15.943  0.00  0.00     0.209 HD
ENDBRANCH  17  18
ENDBRANCH   5  17
BRANCH   2  20
HETATM   20  O   UNK     0     -46.121  -2.991  14.472  0.00  0.00    -0.388 OA
HETATM   21  H   UNK     0     -46.506  -3.821  14.141  0.00  0.00     0.210 HD
ENDBRANCH   2  20
BRANCH   3  22
HETATM   22  O   UNK     0     -48.389  -2.167  13.200  0.00  0.00    -0.390 OA
HETATM   23  H   UNK     0     -47.455  -2.049  12.960  0.00  0.00     0.210 HD
ENDBRANCH   3  22
TORSDOF 7
ENDMDL
MODEL 8
REMARK VINA RESULT:      -5.1      4.160      5.923
REMARK  7 active torsions:
REMARK  status: ('A' for Active; 'I' for Inactive)
REMARK    1  A    between atoms: O_2  and  C_10 
REMARK    2  A    between atoms: O_3  and  C_11 
REMARK    3  A    between atoms: O_4  and  C_14 
REMARK    4  A    between atoms: O_6  and  N_9 
REMARK    5  A    between atoms: N_7  and  C_12 
REMARK    6  A    between atoms: N_9  and  C_18 
REMARK    7  A    between atoms: C_13  and  C_14 
ROOT
HETATM    1  O   UNK     0     -49.221  -1.438  16.233  0.00  0.00    -0.353 OA
HETATM    2  C   UNK     0     -49.110  -2.293  14.026  0.00  0.00     0.198 C 
HETATM    3  C   UNK     0     -49.166  -0.782  13.957  0.00  0.00     0.182 C 
HETATM    4  C   UNK     0     -48.685  -2.528  15.465  0.00  0.00     0.264 C 
HETATM    5  C   UNK     0     -49.710  -0.420  15.333  0.00  0.00     0.179 C 
ENDROOT
BRANCH   4   6
HETATM    6  N   UNK     0     -49.192  -3.763  15.992  0.00  0.00    -0.278 N 
HETATM    7  C   UNK     0     -50.385  -4.260  15.491  0.00  0.00     0.102 A 
HETATM    8  C   UNK     0     -50.927  -5.398  15.920  0.00  0.00     0.070 A 
HETATM    9  C   UNK     0     -50.183  -6.125  16.981  0.00  0.00     0.153 A 
HETATM   10  N   UNK     0     -49.058  -5.670  17.464  0.00  0.00    -0.174 NA
HETATM   11  C   UNK     0     -48.509  -4.485  17.004  0.00  0.00     0.352 A 
HETATM   12  O   UNK     0     -47.446  -4.072  17.469  0.00  0.00    -0.244 OA
BRANCH   9  13
HETATM   13  N   UNK     0     -50.711  -7.305  17.454  0.00  0.00    -0.251 N 
HETATM   14  H   UNK     0     -51.657  -7.458  17.783  0.00  0.00     0.196 HD
BRANCH  13  15
HETATM   15  O   UNK     0     -49.855  -8.363  17.354  0.00  0.00    -0.288 OA
HETATM   16  H   UNK     0     -50.335  -8.954  16.750  0.00  0.00     0.244 HD
ENDBRANCH  13  15
ENDBRANCH   9  13
ENDBRANCH   4   6
BRANCH   5  17
HETATM   17  C   UNK     0     -51.232  -0.423  15.397  0.00  0.00     0.198 C 
BRANCH  17  18
HETATM   18  O   UNK     0     -51.733   0.326  14.304  0.00  0.00    -0.398 OA
HETATM   19  H   UNK     0     -52.688   0.441  14.450  0.00  0.00     0.209 HD
ENDBRANCH  17  18
ENDBRANCH   5  17
BRANCH   2  20
HETATM   20  O   UNK     0     -48.198  -2.839  13.094  0.00  0.00    -0.388 OA
HETATM   21  H   UNK     0     -48.597  -3.649  12.735  0.00  0.00     0.210 HD
ENDBRANCH   2  20
BRANCH   3  22
HETATM   22  O   UNK     0     -47.849  -0.242  13.850  0.00  0.00    -0.390 OA
HETATM   23  H   UNK     0     -47.223  -0.845  14.284  0.00  0.00     0.210 HD
ENDBRANCH   3  22
TORSDOF 7
ENDMDL
MODEL 9
REMARK VINA RESULT:      -5.0      7.523      9.979
REMARK  7 active torsions:
REMARK  status: ('A' for Active; 'I' for Inactive)
REMARK    1  A    between atoms: O_2  and  C_10 
REMARK    2  A    between atoms: O_3  and  C_11 
REMARK    3  A    between atoms: O_4  and  C_14 
REMARK    4  A    between atoms: O_6  and  N_9 
REMARK    5  A    between atoms: N_7  and  C_12 
REMARK    6  A    between atoms: N_9  and  C_18 
REMARK    7  A    between atoms: C_13  and  C_14 
ROOT
HETATM    1  O   UNK     0     -52.585   4.977  14.352  0.00  0.00    -0.353 OA
HETATM    2  C   UNK     0     -53.875   3.782  12.764  0.00  0.00     0.198 C 
HETATM    3  C   UNK     0     -54.788   4.248  13.878  0.00  0.00     0.182 C 
HETATM    4  C   UNK     0     -52.668   4.685  12.948  0.00  0.00     0.264 C 
HETATM    5  C   UNK     0     -53.801   4.541  14.999  0.00  0.00     0.179 C 
ENDROOT
BRANCH   4   6
HETATM    6  N   UNK     0     -51.446   4.059  12.529  0.00  0.00    -0.278 N 
HETATM    7  C   UNK     0     -51.241   2.724  12.842  0.00  0.00     0.102 A 
HETATM    8  C   UNK     0     -50.139   2.064  12.492  0.00  0.00     0.070 A 
HETATM    9  C   UNK     0     -49.118   2.836  11.738  0.00  0.00     0.153 A 
HETATM   10  N   UNK     0     -49.296   4.095  11.435  0.00  0.00    -0.174 NA
HETATM   11  C   UNK     0     -50.450   4.764  11.806  0.00  0.00     0.352 A 
HETATM   12  O   UNK     0     -50.602   5.950  11.511  0.00  0.00    -0.244 OA
BRANCH   9  13
HETATM   13  N   UNK     0     -47.963   2.191  11.359  0.00  0.00    -0.251 N 
HETATM   14  H   UNK     0     -47.304   2.492  10.651  0.00  0.00     0.196 HD
BRANCH  13  15
HETATM   15  O   UNK     0     -47.679   1.092  12.117  0.00  0.00    -0.288 OA
HETATM   16  H   UNK     0     -47.677   1.463  13.016  0.00  0.00     0.244 HD
ENDBRANCH  13  15
ENDBRANCH   9  13
ENDBRANCH   4   6
BRANCH   5  17
HETATM   17  C   UNK     0     -53.474   3.319  15.848  0.00  0.00     0.198 C 
BRANCH  17  18
HETATM   18  O   UNK     0     -52.121   3.402  16.258  0.00  0.00    -0.398 OA
HETATM   19  H   UNK     0     -52.120   3.450  17.230  0.00  0.00     0.209 HD
ENDBRANCH  17  18
ENDBRANCH   5  17
BRANCH   2  20
HETATM   20  O   UNK     0     -54.469   3.921  11.489  0.00  0.00    -0.388 OA
HETATM   21  H   UNK     0     -54.514   4.872  11.290  0.00  0.00     0.210 HD
ENDBRANCH   2  20
BRANCH   3  22
HETATM   22  O   UNK     0     -55.422   5.476  13.517  0.00  0.00    -0.390 OA
HETATM   23  H   UNK     0     -56.385   5.352  13.529  0.00  0.00     0.210 HD
ENDBRANCH   3  22
TORSDOF 7
ENDMDL
MODEL 10
REMARK VINA RESULT:      -4.9      2.622      4.228
REMARK  7 active torsions:
REMARK  status: ('A' for Active; 'I' for Inactive)
REMARK    1  A    between atoms: O_2  and  C_10 
REMARK    2  A    between atoms: O_3  and  C_11 
REMARK    3  A    between atoms: O_4  and  C_14 
REMARK    4  A    between atoms: O_6  and  N_9 
REMARK    5  A    between atoms: N_7  and  C_12 
REMARK    6  A    between atoms: N_9  and  C_18 
REMARK    7  A    between atoms: C_13  and  C_14 
ROOT
HETATM    1  O   UNK     0     -46.808  -0.201  20.297  0.00  0.00    -0.353 OA
HETATM    2  C   UNK     0     -47.646   1.637  19.060  0.00  0.00     0.198 C 
HETATM    3  C   UNK     0     -48.345   1.598  20.403  0.00  0.00     0.182 C 
HETATM    4  C   UNK     0     -46.423   0.776  19.316  0.00  0.00     0.264 C 
HETATM    5  C   UNK     0     -48.088   0.167  20.854  0.00  0.00     0.179 C 
ENDROOT
BRANCH   4   6
HETATM    6  N   UNK     0     -45.973   0.097  18.134  0.00  0.00    -0.278 N 
HETATM    7  C   UNK     0     -46.895  -0.188  17.139  0.00  0.00     0.102 A 
HETATM    8  C   UNK     0     -46.566  -0.813  16.010  0.00  0.00     0.070 A 
HETATM    9  C   UNK     0     -45.139  -1.200  15.861  0.00  0.00     0.153 A 
HETATM   10  N   UNK     0     -44.258  -0.939  16.790  0.00  0.00    -0.174 NA
HETATM   11  C   UNK     0     -44.619  -0.287  17.956  0.00  0.00     0.352 A 
HETATM   12  O   UNK     0     -43.775  -0.047  18.820  0.00  0.00    -0.244 OA
BRANCH   9  13
HETATM   13  N   UNK     0     -44.758  -1.849  14.709  0.00  0.00    -0.251 N 
HETATM   14  H   UNK     0     -43.925  -1.672  14.160  0.00  0.00     0.196 HD
BRANCH  13  15
HETATM   15  O   UNK     0     -45.573  -2.892  14.377  0.00  0.00    -0.288 OA
HETATM   16  H   UNK     0     -45.135  -3.245  13.585  0.00  0.00     0.244 HD
ENDBRANCH  13  15
ENDBRANCH   9  13
ENDBRANCH   4   6
BRANCH   5  17
HETATM   17  C   UNK     0     -49.129  -0.821  20.341  0.00  0.00     0.198 C 
BRANCH  17  18
HETATM   18  O   UNK     0     -48.457  -1.934  19.778  0.00  0.00    -0.398 OA
HETATM   19  H   UNK     0     -49.019  -2.273  19.059  0.00  0.00     0.209 HD
ENDBRANCH  17  18
ENDBRANCH   5  17
BRANCH   2  20
HETATM   20  O   UNK     0     -47.312   2.953  18.667  0.00  0.00    -0.388 OA
HETATM   21  H   UNK     0     -47.121   2.934  17.715  0.00  0.00     0.210 HD
ENDBRANCH   2  20
BRANCH   3  22
HETATM   22  O   UNK     0     -47.695   2.473  21.325  0.00  0.00    -0.390 OA
HETATM   23  H   UNK     0     -47.874   3.393  21.069  0.00  0.00     0.210 HD
ENDBRANCH   3  22
TORSDOF 7
ENDMDL
