MODEL 1
REMARK VINA RESULT:      -7.5      0.000      0.000
REMARK  10 active torsions:
REMARK  status: ('A' for Active; 'I' for Inactive)
REMARK    1  A    between atoms: O_2  and  C_15 
REMARK    2  A    between atoms: O_2  and  C_18 
REMARK    3  A    between atoms: O_3  and  C_12 
REMARK    4  A    between atoms: O_4  and  C_13 
REMARK    5  A    between atoms: O_5  and  C_14 
REMARK    6  A    between atoms: O_6  and  C_17 
REMARK    7  A    between atoms: O_9  and  C_20 
REMARK    8  A    between atoms: O_10  and  C_23 
REMARK    9  A    between atoms: C_16  and  C_17 
REMARK   10  A    between atoms: C_25  and  C_27 
ROOT
HETATM    1  O   UNK     0     -51.394   1.199  13.594  0.00  0.00    -0.340 OA
HETATM    2  C   UNK     0     -50.067   3.357  12.237  0.00  0.00     0.183 C 
HETATM    3  C   UNK     0     -49.648   1.897  12.060  0.00  0.00     0.205 C 
HETATM    4  C   UNK     0     -51.510   3.468  12.728  0.00  0.00     0.189 C 
HETATM    5  C   UNK     0     -50.008   1.065  13.292  0.00  0.00     0.299 C 
HETATM    6  C   UNK     0     -51.752   2.540  13.912  0.00  0.00     0.253 C 
ENDROOT
BRANCH   5   7
HETATM    7  O   UNK     0     -49.707  -0.301  13.004  0.00  0.00    -0.315 OA
BRANCH   7   8
HETATM    8  C   UNK     0     -49.102  -1.015  13.996  0.00  0.00     0.110 A 
HETATM    9  C   UNK     0     -48.058  -0.436  14.716  0.00  0.00     0.078 A 
HETATM   10  C   UNK     0     -47.432  -1.158  15.734  0.00  0.00     0.096 A 
HETATM   11  O   UNK     0     -46.412  -0.537  16.406  0.00  0.00    -0.309 OA
HETATM   12  C   UNK     0     -47.852  -2.455  16.026  0.00  0.00     0.084 A 
HETATM   13  C   UNK     0     -45.776  -1.228  17.427  0.00  0.00     0.090 A 
HETATM   14  C   UNK     0     -46.085  -2.480  17.798  0.00  0.00     0.094 A 
HETATM   15  C   UNK     0     -47.174  -3.194  17.102  0.00  0.00     0.190 A 
HETATM   16  O   UNK     0     -47.489  -4.336  17.410  0.00  0.00    -0.287 OA
HETATM   17  C   UNK     0     -48.898  -3.038  15.307  0.00  0.00     0.118 A 
HETATM   18  C   UNK     0     -49.521  -2.314  14.291  0.00  0.00     0.134 A 
BRANCH  13  19
HETATM   19  C   UNK     0     -44.691  -0.468  18.081  0.00  0.00    -0.002 A 
HETATM   20  C   UNK     0     -44.780   0.921  18.199  0.00  0.00     0.014 A 
HETATM   21  C   UNK     0     -43.755   1.638  18.817  0.00  0.00     0.001 A 
HETATM   22  C   UNK     0     -42.639   0.968  19.320  0.00  0.00     0.000 A 
HETATM   23  C   UNK     0     -42.547  -0.419  19.203  0.00  0.00     0.001 A 
HETATM   24  C   UNK     0     -43.572  -1.135  18.585  0.00  0.00     0.014 A 
ENDBRANCH  13  19
BRANCH  17  25
HETATM   25  O   UNK     0     -49.335  -4.303  15.565  0.00  0.00    -0.357 OA
HETATM   26  H   UNK     0     -49.045  -4.917  14.873  0.00  0.00     0.217 HD
ENDBRANCH  17  25
BRANCH  18  27
HETATM   27  O   UNK     0     -50.544  -2.873  13.581  0.00  0.00    -0.356 OA
HETATM   28  H   UNK     0     -50.165  -3.372  12.836  0.00  0.00     0.218 HD
ENDBRANCH  18  27
ENDBRANCH   7   8
ENDBRANCH   5   7
BRANCH   6  29
HETATM   29  C   UNK     0     -53.209   2.441  14.227  0.00  0.00     0.172 C 
HETATM   30  O   UNK     0     -53.877   3.326  14.741  0.00  0.00    -0.648 OA
BRANCH  29  31
HETATM   31  O   UNK     0     -53.695   1.229  13.866  0.00  0.00    -0.774 OA
HETATM   32  H   UNK     0     -53.937   0.684  14.645  0.00  0.00     0.167 HD
ENDBRANCH  29  31
ENDBRANCH   6  29
BRANCH   3  33
HETATM   33  O   UNK     0     -48.234   1.829  11.872  0.00  0.00    -0.388 OA
HETATM   34  H   UNK     0     -48.028   2.266  11.029  0.00  0.00     0.210 HD
ENDBRANCH   3  33
BRANCH   4  35
HETATM   35  O   UNK     0     -51.762   4.810  13.139  0.00  0.00    -0.390 OA
HETATM   36  H   UNK     0     -52.493   4.796  13.780  0.00  0.00     0.210 HD
ENDBRANCH   4  35
BRANCH   2  37
HETATM   37  O   UNK     0     -49.972   4.035  10.984  0.00  0.00    -0.390 OA
HETATM   38  H   UNK     0     -49.069   3.909  10.648  0.00  0.00     0.210 HD
ENDBRANCH   2  37
TORSDOF 10
ENDMDL
MODEL 2
REMARK VINA RESULT:      -7.0      3.123      5.837
REMARK  10 active torsions:
REMARK  status: ('A' for Active; 'I' for Inactive)
REMARK    1  A    between atoms: O_2  and  C_15 
REMARK    2  A    between atoms: O_2  and  C_18 
REMARK    3  A    between atoms: O_3  and  C_12 
REMARK    4  A    between atoms: O_4  and  C_13 
REMARK    5  A    between atoms: O_5  and  C_14 
REMARK    6  A    between atoms: O_6  and  C_17 
REMARK    7  A    between atoms: O_9  and  C_20 
REMARK    8  A    between atoms: O_10  and  C_23 
REMARK    9  A    between atoms: C_16  and  C_17 
REMARK   10  A    between atoms: C_25  and  C_27 
ROOT
HETATM    1  O   UNK     0     -47.634  -0.964  16.362  0.00  0.00    -0.340 OA
HETATM    2  C   UNK     0     -49.784  -1.317  14.489  0.00  0.00     0.183 C 
HETATM    3  C   UNK     0     -49.871  -0.339  15.660  0.00  0.00     0.205 C 
HETATM    4  C   UNK     0     -48.332  -1.633  14.131  0.00  0.00     0.189 C 
HETATM    5  C   UNK     0     -48.973  -0.779  16.816  0.00  0.00     0.299 C 
HETATM    6  C   UNK     0     -47.533  -1.989  15.380  0.00  0.00     0.253 C 
ENDROOT
BRANCH   5   7
HETATM    7  O   UNK     0     -49.006   0.243  17.814  0.00  0.00    -0.315 OA
BRANCH   7   8
HETATM    8  C   UNK     0     -48.059   0.172  18.792  0.00  0.00     0.110 A 
HETATM    9  C   UNK     0     -46.875   0.896  18.652  0.00  0.00     0.078 A 
HETATM   10  C   UNK     0     -45.899   0.831  19.648  0.00  0.00     0.096 A 
HETATM   11  O   UNK     0     -44.756   1.563  19.453  0.00  0.00    -0.309 OA
HETATM   12  C   UNK     0     -46.110   0.043  20.778  0.00  0.00     0.084 A 
HETATM   13  C   UNK     0     -43.772   1.523  20.429  0.00  0.00     0.090 A 
HETATM   14  C   UNK     0     -43.855   0.800  21.557  0.00  0.00     0.094 A 
HETATM   15  C   UNK     0     -45.064  -0.009  21.811  0.00  0.00     0.190 A 
HETATM   16  O   UNK     0     -45.181  -0.681  22.827  0.00  0.00    -0.287 OA
HETATM   17  C   UNK     0     -47.294  -0.683  20.922  0.00  0.00     0.118 A 
HETATM   18  C   UNK     0     -48.268  -0.616  19.925  0.00  0.00     0.134 A 
BRANCH  13  19
HETATM   19  C   UNK     0     -42.584   2.344  20.118  0.00  0.00    -0.002 A 
HETATM   20  C   UNK     0     -42.319   2.722  18.799  0.00  0.00     0.014 A 
HETATM   21  C   UNK     0     -41.197   3.498  18.505  0.00  0.00     0.001 A 
HETATM   22  C   UNK     0     -40.338   3.898  19.528  0.00  0.00     0.000 A 
HETATM   23  C   UNK     0     -40.599   3.522  20.846  0.00  0.00     0.001 A 
HETATM   24  C   UNK     0     -41.721   2.747  21.139  0.00  0.00     0.014 A 
ENDBRANCH  13  19
BRANCH  17  25
HETATM   25  O   UNK     0     -47.535  -1.463  22.014  0.00  0.00    -0.357 OA
HETATM   26  H   UNK     0     -46.704  -1.777  22.403  0.00  0.00     0.217 HD
ENDBRANCH  17  25
BRANCH  18  27
HETATM   27  O   UNK     0     -49.429  -1.321  20.055  0.00  0.00    -0.356 OA
HETATM   28  H   UNK     0     -50.165  -0.690  20.139  0.00  0.00     0.218 HD
ENDBRANCH  18  27
ENDBRANCH   7   8
ENDBRANCH   5   7
BRANCH   6  29
HETATM   29  C   UNK     0     -46.070  -2.038  15.083  0.00  0.00     0.172 C 
HETATM   30  O   UNK     0     -45.242  -1.242  15.502  0.00  0.00    -0.648 OA
BRANCH  29  31
HETATM   31  O   UNK     0     -45.779  -3.089  14.278  0.00  0.00    -0.774 OA
HETATM   32  H   UNK     0     -46.574  -3.425  13.812  0.00  0.00     0.167 HD
ENDBRANCH  29  31
ENDBRANCH   6  29
BRANCH   3  33
HETATM   33  O   UNK     0     -51.217  -0.286  16.135  0.00  0.00    -0.388 OA
HETATM   34  H   UNK     0     -51.583  -1.185  16.084  0.00  0.00     0.210 HD
ENDBRANCH   3  33
BRANCH   4  35
HETATM   35  O   UNK     0     -48.302  -2.742  13.236  0.00  0.00    -0.390 OA
HETATM   36  H   UNK     0     -49.096  -3.280  13.395  0.00  0.00     0.210 HD
ENDBRANCH   4  35
BRANCH   2  37
HETATM   37  O   UNK     0     -50.408  -0.742  13.340  0.00  0.00    -0.390 OA
HETATM   38  H   UNK     0     -49.915  -1.038  12.557  0.00  0.00     0.210 HD
ENDBRANCH   2  37
TORSDOF 10
ENDMDL
MODEL 3
REMARK VINA RESULT:      -6.9      1.834      3.431
REMARK  10 active torsions:
REMARK  status: ('A' for Active; 'I' for Inactive)
REMARK    1  A    between atoms: O_2  and  C_15 
REMARK    2  A    between atoms: O_2  and  C_18 
REMARK    3  A    between atoms: O_3  and  C_12 
REMARK    4  A    between atoms: O_4  and  C_13 
REMARK    5  A    between atoms: O_5  and  C_14 
REMARK    6  A    between atoms: O_6  and  C_17 
REMARK    7  A    between atoms: O_9  and  C_20 
REMARK    8  A    between atoms: O_10  and  C_23 
REMARK    9  A    between atoms: C_16  and  C_17 
REMARK   10  A    between atoms: C_25  and  C_27 
ROOT
HETATM    1  O   UNK     0     -49.607   0.056  14.075  0.00  0.00    -0.340 OA
HETATM    2  C   UNK     0     -51.991   1.594  14.533  0.00  0.00     0.183 C 
HETATM    3  C   UNK     0     -51.470   0.571  15.543  0.00  0.00     0.205 C 
HETATM    4  C   UNK     0     -50.880   2.072  13.599  0.00  0.00     0.189 C 
HETATM    5  C   UNK     0     -50.653  -0.522  14.852  0.00  0.00     0.299 C 
HETATM    6  C   UNK     0     -50.103   0.888  13.033  0.00  0.00     0.253 C 
ENDROOT
BRANCH   5   7
HETATM    7  O   UNK     0     -50.095  -1.361  15.864  0.00  0.00    -0.315 OA
BRANCH   7   8
HETATM    8  C   UNK     0     -48.737  -1.352  15.984  0.00  0.00     0.110 A 
HETATM    9  C   UNK     0     -48.143  -0.585  16.986  0.00  0.00     0.078 A 
HETATM   10  C   UNK     0     -46.753  -0.570  17.117  0.00  0.00     0.096 A 
HETATM   11  O   UNK     0     -46.228   0.204  18.120  0.00  0.00    -0.309 OA
HETATM   12  C   UNK     0     -45.964  -1.320  16.247  0.00  0.00     0.084 A 
HETATM   13  C   UNK     0     -44.851   0.233  18.279  0.00  0.00     0.090 A 
HETATM   14  C   UNK     0     -43.986  -0.440  17.503  0.00  0.00     0.094 A 
HETATM   15  C   UNK     0     -44.502  -1.284  16.407  0.00  0.00     0.190 A 
HETATM   16  O   UNK     0     -43.748  -1.915  15.678  0.00  0.00    -0.287 OA
HETATM   17  C   UNK     0     -46.555  -2.090  15.243  0.00  0.00     0.118 A 
HETATM   18  C   UNK     0     -47.944  -2.103  15.114  0.00  0.00     0.134 A 
BRANCH  13  19
HETATM   19  C   UNK     0     -44.392   1.099  19.384  0.00  0.00    -0.002 A 
HETATM   20  C   UNK     0     -43.068   1.543  19.424  0.00  0.00     0.014 A 
HETATM   21  C   UNK     0     -42.635   2.362  20.467  0.00  0.00     0.001 A 
HETATM   22  C   UNK     0     -43.525   2.741  21.472  0.00  0.00     0.000 A 
HETATM   23  C   UNK     0     -44.848   2.300  21.435  0.00  0.00     0.001 A 
HETATM   24  C   UNK     0     -45.280   1.481  20.392  0.00  0.00     0.014 A 
ENDBRANCH  13  19
BRANCH  17  25
HETATM   25  O   UNK     0     -45.814  -2.836  14.375  0.00  0.00    -0.357 OA
HETATM   26  H   UNK     0     -45.999  -2.582  13.457  0.00  0.00     0.217 HD
ENDBRANCH  17  25
BRANCH  18  27
HETATM   27  O   UNK     0     -48.532  -2.851  14.136  0.00  0.00    -0.356 OA
HETATM   28  H   UNK     0     -48.448  -3.791  14.375  0.00  0.00     0.218 HD
ENDBRANCH  18  27
ENDBRANCH   7   8
ENDBRANCH   5   7
BRANCH   6  29
HETATM   29  C   UNK     0     -48.862   1.345  12.338  0.00  0.00     0.172 C 
HETATM   30  O   UNK     0     -48.788   2.316  11.599  0.00  0.00    -0.648 OA
BRANCH  29  31
HETATM   31  O   UNK     0     -47.820   0.532  12.636  0.00  0.00    -0.774 OA
HETATM   32  H   UNK     0     -47.023   0.749  12.107  0.00  0.00     0.167 HD
ENDBRANCH  29  31
ENDBRANCH   6  29
BRANCH   3  33
HETATM   33  O   UNK     0     -52.574  -0.046  16.205  0.00  0.00    -0.388 OA
HETATM   34  H   UNK     0     -52.687   0.394  17.064  0.00  0.00     0.210 HD
ENDBRANCH   3  33
BRANCH   4  35
HETATM   35  O   UNK     0     -51.460   2.798  12.517  0.00  0.00    -0.390 OA
HETATM   36  H   UNK     0     -51.633   3.705  12.821  0.00  0.00     0.210 HD
ENDBRANCH   4  35
BRANCH   2  37
HETATM   37  O   UNK     0     -52.504   2.731  15.229  0.00  0.00    -0.390 OA
HETATM   38  H   UNK     0     -52.155   2.704  16.135  0.00  0.00     0.210 HD
ENDBRANCH   2  37
TORSDOF 10
ENDMDL
MODEL 4
REMARK VINA RESULT:      -6.9      4.313      6.783
REMARK  10 active torsions:
REMARK  status: ('A' for Active; 'I' for Inactive)
REMARK    1  A    between atoms: O_2  and  C_15 
REMARK    2  A    between atoms: O_2  and  C_18 
REMARK    3  A    between atoms: O_3  and  C_12 
REMARK    4  A    between atoms: O_4  and  C_13 
REMARK    5  A    between atoms: O_5  and  C_14 
REMARK    6  A    between atoms: O_6  and  C_17 
REMARK    7  A    between atoms: O_9  and  C_20 
REMARK    8  A    between atoms: O_10  and  C_23 
REMARK    9  A    between atoms: C_16  and  C_17 
REMARK   10  A    between atoms: C_25  and  C_27 
ROOT
HETATM    1  O   UNK     0     -48.270  -1.950  16.370  0.00  0.00    -0.340 OA
HETATM    2  C   UNK     0     -49.886  -1.250  14.100  0.00  0.00     0.183 C 
HETATM    3  C   UNK     0     -50.473  -1.898  15.354  0.00  0.00     0.205 C 
HETATM    4  C   UNK     0     -48.558  -0.556  14.400  0.00  0.00     0.189 C 
HETATM    5  C   UNK     0     -49.425  -2.737  16.085  0.00  0.00     0.299 C 
HETATM    6  C   UNK     0     -47.634  -1.476  15.189  0.00  0.00     0.253 C 
ENDROOT
BRANCH   5   7
HETATM    7  O   UNK     0     -50.005  -3.201  17.305  0.00  0.00    -0.315 OA
BRANCH   7   8
HETATM    8  C   UNK     0     -49.909  -4.538  17.557  0.00  0.00     0.110 A 
HETATM    9  C   UNK     0     -48.711  -5.058  18.045  0.00  0.00     0.078 A 
HETATM   10  C   UNK     0     -48.603  -6.425  18.306  0.00  0.00     0.096 A 
HETATM   11  O   UNK     0     -47.400  -6.878  18.783  0.00  0.00    -0.309 OA
HETATM   12  C   UNK     0     -49.691  -7.265  18.078  0.00  0.00     0.084 A 
HETATM   13  C   UNK     0     -47.266  -8.230  19.059  0.00  0.00     0.090 A 
HETATM   14  C   UNK     0     -48.237  -9.139  18.876  0.00  0.00     0.094 A 
HETATM   15  C   UNK     0     -49.549  -8.701  18.360  0.00  0.00     0.190 A 
HETATM   16  O   UNK     0     -50.462  -9.497  18.182  0.00  0.00    -0.287 OA
HETATM   17  C   UNK     0     -50.894  -6.748  17.590  0.00  0.00     0.118 A 
HETATM   18  C   UNK     0     -50.998  -5.381  17.330  0.00  0.00     0.134 A 
BRANCH  13  19
HETATM   19  C   UNK     0     -45.930  -8.611  19.563  0.00  0.00    -0.002 A 
HETATM   20  C   UNK     0     -45.608  -8.419  20.909  0.00  0.00     0.014 A 
HETATM   21  C   UNK     0     -44.347  -8.779  21.385  0.00  0.00     0.001 A 
HETATM   22  C   UNK     0     -43.405  -9.332  20.518  0.00  0.00     0.000 A 
HETATM   23  C   UNK     0     -43.724  -9.525  19.174  0.00  0.00     0.001 A 
HETATM   24  C   UNK     0     -44.985  -9.165  18.697  0.00  0.00     0.014 A 
ENDBRANCH  13  19
BRANCH  17  25
HETATM   25  O   UNK     0     -51.978  -7.539  17.356  0.00  0.00    -0.357 OA
HETATM   26  H   UNK     0     -52.062  -8.221  18.040  0.00  0.00     0.217 HD
ENDBRANCH  17  25
BRANCH  18  27
HETATM   27  O   UNK     0     -52.168  -4.864  16.853  0.00  0.00    -0.356 OA
HETATM   28  H   UNK     0     -52.318  -4.000  17.276  0.00  0.00     0.218 HD
ENDBRANCH  18  27
ENDBRANCH   7   8
ENDBRANCH   5   7
BRANCH   6  29
HETATM   29  C   UNK     0     -46.452  -0.727  15.713  0.00  0.00     0.172 C 
HETATM   30  O   UNK     0     -46.344  -0.292  16.850  0.00  0.00    -0.648 OA
BRANCH  29  31
HETATM   31  O   UNK     0     -45.507  -0.590  14.750  0.00  0.00    -0.774 OA
HETATM   32  H   UNK     0     -45.004   0.247  14.847  0.00  0.00     0.167 HD
ENDBRANCH  29  31
ENDBRANCH   6  29
BRANCH   3  33
HETATM   33  O   UNK     0     -51.553  -2.755  14.983  0.00  0.00    -0.388 OA
HETATM   34  H   UNK     0     -52.365  -2.223  14.982  0.00  0.00     0.210 HD
ENDBRANCH   3  33
BRANCH   4  35
HETATM   35  O   UNK     0     -47.921  -0.214  13.170  0.00  0.00    -0.390 OA
HETATM   36  H   UNK     0     -48.532  -0.429  12.445  0.00  0.00     0.210 HD
ENDBRANCH   4  35
BRANCH   2  37
HETATM   37  O   UNK     0     -50.795  -0.267  13.601  0.00  0.00    -0.390 OA
HETATM   38  H   UNK     0     -51.677  -0.477  13.951  0.00  0.00     0.210 HD
ENDBRANCH   2  37
TORSDOF 10
ENDMDL
MODEL 5
REMARK VINA RESULT:      -6.9      4.747      7.412
REMARK  10 active torsions:
REMARK  status: ('A' for Active; 'I' for Inactive)
REMARK    1  A    between atoms: O_2  and  C_15 
REMARK    2  A    between atoms: O_2  and  C_18 
REMARK    3  A    between atoms: O_3  and  C_12 
REMARK    4  A    between atoms: O_4  and  C_13 
REMARK    5  A    between atoms: O_5  and  C_14 
REMARK    6  A    between atoms: O_6  and  C_17 
REMARK    7  A    between atoms: O_9  and  C_20 
REMARK    8  A    between atoms: O_10  and  C_23 
REMARK    9  A    between atoms: C_16  and  C_17 
REMARK   10  A    between atoms: C_25  and  C_27 
ROOT
HETATM    1  O   UNK     0     -47.993  -2.585  17.278  0.00  0.00    -0.340 OA
HETATM    2  C   UNK     0     -48.033  -2.122  14.442  0.00  0.00     0.183 C 
HETATM    3  C   UNK     0     -49.122  -2.923  15.157  0.00  0.00     0.205 C 
HETATM    4  C   UNK     0     -47.297  -1.195  15.409  0.00  0.00     0.189 C 
HETATM    5  C   UNK     0     -48.585  -3.570  16.434  0.00  0.00     0.299 C 
HETATM    6  C   UNK     0     -46.877  -1.948  16.666  0.00  0.00     0.253 C 
ENDROOT
BRANCH   5   7
HETATM    7  O   UNK     0     -49.681  -4.188  17.110  0.00  0.00    -0.315 OA
BRANCH   7   8
HETATM    8  C   UNK     0     -49.504  -5.481  17.506  0.00  0.00     0.110 A 
HETATM    9  C   UNK     0     -48.258  -5.884  17.988  0.00  0.00     0.078 A 
HETATM   10  C   UNK     0     -48.066  -7.205  18.396  0.00  0.00     0.096 A 
HETATM   11  O   UNK     0     -46.821  -7.542  18.860  0.00  0.00    -0.309 OA
HETATM   12  C   UNK     0     -49.118  -8.116  18.320  0.00  0.00     0.084 A 
HETATM   13  C   UNK     0     -46.603  -8.845  19.279  0.00  0.00     0.090 A 
HETATM   14  C   UNK     0     -47.531  -9.814  19.250  0.00  0.00     0.094 A 
HETATM   15  C   UNK     0     -48.887  -9.502  18.755  0.00  0.00     0.190 A 
HETATM   16  O   UNK     0     -49.763 -10.356  18.714  0.00  0.00    -0.287 OA
HETATM   17  C   UNK     0     -50.366  -7.717  17.838  0.00  0.00     0.118 A 
HETATM   18  C   UNK     0     -50.555  -6.396  17.431  0.00  0.00     0.134 A 
BRANCH  13  19
HETATM   19  C   UNK     0     -45.228  -9.101  19.755  0.00  0.00    -0.002 A 
HETATM   20  C   UNK     0     -44.850  -8.719  21.045  0.00  0.00     0.014 A 
HETATM   21  C   UNK     0     -43.551  -8.962  21.495  0.00  0.00     0.001 A 
HETATM   22  C   UNK     0     -42.628  -9.586  20.657  0.00  0.00     0.000 A 
HETATM   23  C   UNK     0     -43.002  -9.968  19.368  0.00  0.00     0.001 A 
HETATM   24  C   UNK     0     -44.300  -9.726  18.919  0.00  0.00     0.014 A 
ENDBRANCH  13  19
BRANCH  17  25
HETATM   25  O   UNK     0     -51.417  -8.580  17.750  0.00  0.00    -0.357 OA
HETATM   26  H   UNK     0     -51.908  -8.612  18.585  0.00  0.00     0.217 HD
ENDBRANCH  17  25
BRANCH  18  27
HETATM   27  O   UNK     0     -51.771  -5.993  16.958  0.00  0.00    -0.356 OA
HETATM   28  H   UNK     0     -52.091  -5.262  17.514  0.00  0.00     0.218 HD
ENDBRANCH  18  27
ENDBRANCH   7   8
ENDBRANCH   5   7
BRANCH   6  29
HETATM   29  C   UNK     0     -46.399  -1.004  17.721  0.00  0.00     0.172 C 
HETATM   30  O   UNK     0     -45.887  -1.336  18.780  0.00  0.00    -0.648 OA
BRANCH  29  31
HETATM   31  O   UNK     0     -46.614   0.280  17.347  0.00  0.00    -0.774 OA
HETATM   32  H   UNK     0     -45.774   0.766  17.202  0.00  0.00     0.167 HD
ENDBRANCH  29  31
ENDBRANCH   6  29
BRANCH   3  33
HETATM   33  O   UNK     0     -49.592  -3.960  14.294  0.00  0.00    -0.388 OA
HETATM   34  H   UNK     0     -50.147  -3.546  13.612  0.00  0.00     0.210 HD
ENDBRANCH   3  33
BRANCH   4  35
HETATM   35  O   UNK     0     -46.129  -0.685  14.769  0.00  0.00    -0.390 OA
HETATM   36  H   UNK     0     -45.357  -1.144  15.142  0.00  0.00     0.210 HD
ENDBRANCH   4  35
BRANCH   2  37
HETATM   37  O   UNK     0     -48.626  -1.317  13.422  0.00  0.00    -0.390 OA
HETATM   38  H   UNK     0     -48.909  -1.909  12.706  0.00  0.00     0.210 HD
ENDBRANCH   2  37
TORSDOF 10
ENDMDL
MODEL 6
REMARK VINA RESULT:      -6.8      3.520      8.592
REMARK  10 active torsions:
REMARK  status: ('A' for Active; 'I' for Inactive)
REMARK    1  A    between atoms: O_2  and  C_15 
REMARK    2  A    between atoms: O_2  and  C_18 
REMARK    3  A    between atoms: O_3  and  C_12 
REMARK    4  A    between atoms: O_4  and  C_13 
REMARK    5  A    between atoms: O_5  and  C_14 
REMARK    6  A    between atoms: O_6  and  C_17 
REMARK    7  A    between atoms: O_9  and  C_20 
REMARK    8  A    between atoms: O_10  and  C_23 
REMARK    9  A    between atoms: C_16  and  C_17 
REMARK   10  A    between atoms: C_25  and  C_27 
ROOT
HETATM    1  O   UNK     0     -47.836  -7.482  18.147  0.00  0.00    -0.340 OA
HETATM    2  C   UNK     0     -49.621  -7.912  20.357  0.00  0.00     0.183 C 
HETATM    3  C   UNK     0     -50.085  -7.292  19.038  0.00  0.00     0.205 C 
HETATM    4  C   UNK     0     -48.343  -8.729  20.171  0.00  0.00     0.189 C 
HETATM    5  C   UNK     0     -48.932  -6.588  18.323  0.00  0.00     0.299 C 
HETATM    6  C   UNK     0     -47.304  -7.937  19.386  0.00  0.00     0.253 C 
ENDROOT
BRANCH   5   7
HETATM    7  O   UNK     0     -49.406  -6.150  17.049  0.00  0.00    -0.315 OA
BRANCH   7   8
HETATM    8  C   UNK     0     -49.000  -4.914  16.638  0.00  0.00     0.110 A 
HETATM    9  C   UNK     0     -47.918  -4.304  17.272  0.00  0.00     0.078 A 
HETATM   10  C   UNK     0     -47.495  -3.040  16.859  0.00  0.00     0.096 A 
HETATM   11  O   UNK     0     -46.427  -2.490  17.521  0.00  0.00    -0.309 OA
HETATM   12  C   UNK     0     -48.154  -2.392  15.816  0.00  0.00     0.084 A 
HETATM   13  C   UNK     0     -45.979  -1.238  17.127  0.00  0.00     0.090 A 
HETATM   14  C   UNK     0     -46.532  -0.513  16.142  0.00  0.00     0.094 A 
HETATM   15  C   UNK     0     -47.687  -1.059  15.402  0.00  0.00     0.190 A 
HETATM   16  O   UNK     0     -48.220  -0.432  14.496  0.00  0.00    -0.287 OA
HETATM   17  C   UNK     0     -49.237  -3.000  15.178  0.00  0.00     0.118 A 
HETATM   18  C   UNK     0     -49.658  -4.263  15.593  0.00  0.00     0.134 A 
BRANCH  13  19
HETATM   19  C   UNK     0     -44.828  -0.740  17.908  0.00  0.00    -0.002 A 
HETATM   20  C   UNK     0     -44.699   0.627  18.172  0.00  0.00     0.014 A 
HETATM   21  C   UNK     0     -43.613   1.097  18.910  0.00  0.00     0.001 A 
HETATM   22  C   UNK     0     -42.653   0.205  19.387  0.00  0.00     0.000 A 
HETATM   23  C   UNK     0     -42.779  -1.160  19.124  0.00  0.00     0.001 A 
HETATM   24  C   UNK     0     -43.865  -1.631  18.386  0.00  0.00     0.014 A 
ENDBRANCH  13  19
BRANCH  17  25
HETATM   25  O   UNK     0     -49.905  -2.396  14.155  0.00  0.00    -0.357 OA
HETATM   26  H   UNK     0     -50.727  -1.991  14.470  0.00  0.00     0.217 HD
ENDBRANCH  17  25
BRANCH  18  27
HETATM   27  O   UNK     0     -50.716  -4.868  14.978  0.00  0.00    -0.356 OA
HETATM   28  H   UNK     0     -50.655  -4.697  14.022  0.00  0.00     0.218 HD
ENDBRANCH  18  27
ENDBRANCH   7   8
ENDBRANCH   5   7
BRANCH   6  29
HETATM   29  C   UNK     0     -46.166  -8.811  18.972  0.00  0.00     0.172 C 
HETATM   30  O   UNK     0     -45.067  -8.411  18.615  0.00  0.00    -0.648 OA
BRANCH  29  31
HETATM   31  O   UNK     0     -46.516 -10.118  19.041  0.00  0.00    -0.774 OA
HETATM   32  H   UNK     0     -46.110 -10.646  18.320  0.00  0.00     0.167 HD
ENDBRANCH  29  31
ENDBRANCH   6  29
BRANCH   3  33
HETATM   33  O   UNK     0     -51.105  -6.328  19.300  0.00  0.00    -0.388 OA
HETATM   34  H   UNK     0     -51.117  -6.164  20.258  0.00  0.00     0.210 HD
ENDBRANCH   3  33
BRANCH   4  35
HETATM   35  O   UNK     0     -47.803  -9.050  21.451  0.00  0.00    -0.390 OA
HETATM   36  H   UNK     0     -47.036  -9.633  21.318  0.00  0.00     0.210 HD
ENDBRANCH   4  35
BRANCH   2  37
HETATM   37  O   UNK     0     -50.636  -8.785  20.856  0.00  0.00    -0.390 OA
HETATM   38  H   UNK     0     -51.391  -8.236  21.125  0.00  0.00     0.210 HD
ENDBRANCH   2  37
TORSDOF 10
ENDMDL
MODEL 7
REMARK VINA RESULT:      -6.7      3.515      6.660
REMARK  10 active torsions:
REMARK  status: ('A' for Active; 'I' for Inactive)
REMARK    1  A    between atoms: O_2  and  C_15 
REMARK    2  A    between atoms: O_2  and  C_18 
REMARK    3  A    between atoms: O_3  and  C_12 
REMARK    4  A    between atoms: O_4  and  C_13 
REMARK    5  A    between atoms: O_5  and  C_14 
REMARK    6  A    between atoms: O_6  and  C_17 
REMARK    7  A    between atoms: O_9  and  C_20 
REMARK    8  A    between atoms: O_10  and  C_23 
REMARK    9  A    between atoms: C_16  and  C_17 
REMARK   10  A    between atoms: C_25  and  C_27 
ROOT
HETATM    1  O   UNK     0     -47.551  -3.362  16.452  0.00  0.00    -0.340 OA
HETATM    2  C   UNK     0     -49.360  -2.202  14.544  0.00  0.00     0.183 C 
HETATM    3  C   UNK     0     -47.885  -1.807  14.619  0.00  0.00     0.205 C 
HETATM    4  C   UNK     0     -49.601  -3.579  15.164  0.00  0.00     0.189 C 
HETATM    5  C   UNK     0     -47.326  -2.021  16.026  0.00  0.00     0.299 C 
HETATM    6  C   UNK     0     -48.936  -3.679  16.531  0.00  0.00     0.253 C 
ENDROOT
BRANCH   5   7
HETATM    7  O   UNK     0     -45.923  -1.756  15.987  0.00  0.00    -0.315 OA
BRANCH   7   8
HETATM    8  C   UNK     0     -45.394  -1.111  17.066  0.00  0.00     0.110 A 
HETATM    9  C   UNK     0     -46.174  -0.188  17.762  0.00  0.00     0.078 A 
HETATM   10  C   UNK     0     -45.642   0.477  18.868  0.00  0.00     0.096 A 
HETATM   11  O   UNK     0     -46.456   1.374  19.511  0.00  0.00    -0.309 OA
HETATM   12  C   UNK     0     -44.334   0.217  19.273  0.00  0.00     0.084 A 
HETATM   13  C   UNK     0     -45.957   2.044  20.617  0.00  0.00     0.090 A 
HETATM   14  C   UNK     0     -44.715   1.885  21.100  0.00  0.00     0.094 A 
HETATM   15  C   UNK     0     -43.798   0.934  20.440  0.00  0.00     0.190 A 
HETATM   16  O   UNK     0     -42.658   0.758  20.850  0.00  0.00    -0.287 OA
HETATM   17  C   UNK     0     -43.549  -0.707  18.579  0.00  0.00     0.118 A 
HETATM   18  C   UNK     0     -44.084  -1.370  17.474  0.00  0.00     0.134 A 
BRANCH  13  19
HETATM   19  C   UNK     0     -46.914   2.987  21.230  0.00  0.00    -0.002 A 
HETATM   20  C   UNK     0     -46.650   3.537  22.488  0.00  0.00     0.014 A 
HETATM   21  C   UNK     0     -47.554   4.429  23.065  0.00  0.00     0.001 A 
HETATM   22  C   UNK     0     -48.724   4.775  22.389  0.00  0.00     0.000 A 
HETATM   23  C   UNK     0     -48.990   4.228  21.133  0.00  0.00     0.001 A 
HETATM   24  C   UNK     0     -48.086   3.336  20.555  0.00  0.00     0.014 A 
ENDBRANCH  13  19
BRANCH  17  25
HETATM   25  O   UNK     0     -42.267  -0.986  18.946  0.00  0.00    -0.357 OA
HETATM   26  H   UNK     0     -41.954  -1.797  18.518  0.00  0.00     0.217 HD
ENDBRANCH  17  25
BRANCH  18  27
HETATM   27  O   UNK     0     -43.327  -2.274  16.788  0.00  0.00    -0.356 OA
HETATM   28  H   UNK     0     -42.546  -2.494  17.326  0.00  0.00     0.218 HD
ENDBRANCH  18  27
ENDBRANCH   7   8
ENDBRANCH   5   7
BRANCH   6  29
HETATM   29  C   UNK     0     -48.938  -5.090  17.024  0.00  0.00     0.172 C 
HETATM   30  O   UNK     0     -49.725  -5.956  16.672  0.00  0.00    -0.648 OA
BRANCH  29  31
HETATM   31  O   UNK     0     -47.943  -5.283  17.925  0.00  0.00    -0.774 OA
HETATM   32  H   UNK     0     -47.120  -5.605  17.499  0.00  0.00     0.167 HD
ENDBRANCH  29  31
ENDBRANCH   6  29
BRANCH   3  33
HETATM   33  O   UNK     0     -47.747  -0.425  14.287  0.00  0.00    -0.388 OA
HETATM   34  H   UNK     0     -48.468  -0.195  13.677  0.00  0.00     0.210 HD
ENDBRANCH   3  33
BRANCH   4  35
HETATM   35  O   UNK     0     -51.004  -3.780  15.321  0.00  0.00    -0.390 OA
HETATM   36  H   UNK     0     -51.172  -4.016  16.249  0.00  0.00     0.210 HD
ENDBRANCH   4  35
BRANCH   2  37
HETATM   37  O   UNK     0     -49.770  -2.255  13.176  0.00  0.00    -0.390 OA
HETATM   38  H   UNK     0     -50.721  -2.060  13.146  0.00  0.00     0.210 HD
ENDBRANCH   2  37
TORSDOF 10
ENDMDL
MODEL 8
REMARK VINA RESULT:      -6.7      3.825      7.123
REMARK  10 active torsions:
REMARK  status: ('A' for Active; 'I' for Inactive)
REMARK    1  A    between atoms: O_2  and  C_15 
REMARK    2  A    between atoms: O_2  and  C_18 
REMARK    3  A    between atoms: O_3  and  C_12 
REMARK    4  A    between atoms: O_4  and  C_13 
REMARK    5  A    between atoms: O_5  and  C_14 
REMARK    6  A    between atoms: O_6  and  C_17 
REMARK    7  A    between atoms: O_9  and  C_20 
REMARK    8  A    between atoms: O_10  and  C_23 
REMARK    9  A    between atoms: C_16  and  C_17 
REMARK   10  A    between atoms: C_25  and  C_27 
ROOT
HETATM    1  O   UNK     0     -47.337  -1.055  17.670  0.00  0.00    -0.340 OA
HETATM    2  C   UNK     0     -45.912  -1.808  15.291  0.00  0.00     0.183 C 
HETATM    3  C   UNK     0     -45.390  -2.124  16.693  0.00  0.00     0.205 C 
HETATM    4  C   UNK     0     -47.423  -1.576  15.297  0.00  0.00     0.189 C 
HETATM    5  C   UNK     0     -45.914  -1.118  17.718  0.00  0.00     0.299 C 
HETATM    6  C   UNK     0     -47.817  -0.608  16.406  0.00  0.00     0.253 C 
ENDROOT
BRANCH   5   7
HETATM    7  O   UNK     0     -45.494  -1.549  19.013  0.00  0.00    -0.315 OA
BRANCH   7   8
HETATM    8  C   UNK     0     -45.255  -0.573  19.934  0.00  0.00     0.110 A 
HETATM    9  C   UNK     0     -44.194   0.311  19.734  0.00  0.00     0.078 A 
HETATM   10  C   UNK     0     -43.941   1.315  20.670  0.00  0.00     0.096 A 
HETATM   11  O   UNK     0     -42.884   2.152  20.420  0.00  0.00    -0.309 OA
HETATM   12  C   UNK     0     -44.747   1.430  21.801  0.00  0.00     0.084 A 
HETATM   13  C   UNK     0     -42.613   3.164  21.329  0.00  0.00     0.090 A 
HETATM   14  C   UNK     0     -43.311   3.374  22.456  0.00  0.00     0.094 A 
HETATM   15  C   UNK     0     -44.456   2.496  22.773  0.00  0.00     0.190 A 
HETATM   16  O   UNK     0     -45.120   2.654  23.789  0.00  0.00    -0.287 OA
HETATM   17  C   UNK     0     -45.810   0.547  22.006  0.00  0.00     0.118 A 
HETATM   18  C   UNK     0     -46.061  -0.454  21.068  0.00  0.00     0.134 A 
BRANCH  13  19
HETATM   19  C   UNK     0     -41.454   4.003  20.965  0.00  0.00    -0.002 A 
HETATM   20  C   UNK     0     -40.988   4.978  21.852  0.00  0.00     0.014 A 
HETATM   21  C   UNK     0     -39.892   5.770  21.508  0.00  0.00     0.001 A 
HETATM   22  C   UNK     0     -39.259   5.590  20.278  0.00  0.00     0.000 A 
HETATM   23  C   UNK     0     -39.722   4.618  19.391  0.00  0.00     0.001 A 
HETATM   24  C   UNK     0     -40.818   3.826  19.735  0.00  0.00     0.014 A 
ENDBRANCH  13  19
BRANCH  17  25
HETATM   25  O   UNK     0     -46.619   0.631  23.100  0.00  0.00    -0.357 OA
HETATM   26  H   UNK     0     -47.042  -0.222  23.282  0.00  0.00     0.217 HD
ENDBRANCH  17  25
BRANCH  18  27
HETATM   27  O   UNK     0     -47.096  -1.323  21.256  0.00  0.00    -0.356 OA
HETATM   28  H   UNK     0     -46.891  -1.884  22.024  0.00  0.00     0.218 HD
ENDBRANCH  18  27
ENDBRANCH   7   8
ENDBRANCH   5   7
BRANCH   6  29
HETATM   29  C   UNK     0     -49.299  -0.581  16.592  0.00  0.00     0.172 C 
HETATM   30  O   UNK     0     -50.106  -1.165  15.884  0.00  0.00    -0.648 OA
BRANCH  29  31
HETATM   31  O   UNK     0     -49.634   0.187  17.657  0.00  0.00    -0.774 OA
HETATM   32  H   UNK     0     -49.516   1.143  17.472  0.00  0.00     0.167 HD
ENDBRANCH  29  31
ENDBRANCH   6  29
BRANCH   3  33
HETATM   33  O   UNK     0     -43.964  -2.062  16.693  0.00  0.00    -0.388 OA
HETATM   34  H   UNK     0     -43.631  -2.930  16.410  0.00  0.00     0.210 HD
ENDBRANCH   3  33
BRANCH   4  35
HETATM   35  O   UNK     0     -47.815  -1.020  14.044  0.00  0.00    -0.390 OA
HETATM   36  H   UNK     0     -48.696  -0.622  14.153  0.00  0.00     0.210 HD
ENDBRANCH   4  35
BRANCH   2  37
HETATM   37  O   UNK     0     -45.637  -2.907  14.421  0.00  0.00    -0.390 OA
HETATM   38  H   UNK     0     -45.345  -3.653  14.971  0.00  0.00     0.210 HD
ENDBRANCH   2  37
TORSDOF 10
ENDMDL
MODEL 9
REMARK VINA RESULT:      -6.6      4.164      6.909
REMARK  10 active torsions:
REMARK  status: ('A' for Active; 'I' for Inactive)
REMARK    1  A    between atoms: O_2  and  C_15 
REMARK    2  A    between atoms: O_2  and  C_18 
REMARK    3  A    between atoms: O_3  and  C_12 
REMARK    4  A    between atoms: O_4  and  C_13 
REMARK    5  A    between atoms: O_5  and  C_14 
REMARK    6  A    between atoms: O_6  and  C_17 
REMARK    7  A    between atoms: O_9  and  C_20 
REMARK    8  A    between atoms: O_10  and  C_23 
REMARK    9  A    between atoms: C_16  and  C_17 
REMARK   10  A    between atoms: C_25  and  C_27 
ROOT
HETATM    1  O   UNK     0     -48.599  -4.629  16.583  0.00  0.00    -0.340 OA
HETATM    2  C   UNK     0     -51.354  -5.155  15.956  0.00  0.00     0.183 C 
HETATM    3  C   UNK     0     -50.521  -4.129  15.187  0.00  0.00     0.205 C 
HETATM    4  C   UNK     0     -50.466  -6.184  16.655  0.00  0.00     0.189 C 
HETATM    5  C   UNK     0     -49.394  -3.569  16.055  0.00  0.00     0.299 C 
HETATM    6  C   UNK     0     -49.347  -5.496  17.428  0.00  0.00     0.253 C 
ENDROOT
BRANCH   5   7
HETATM    7  O   UNK     0     -48.586  -2.722  15.237  0.00  0.00    -0.315 OA
BRANCH   7   8
HETATM    8  C   UNK     0     -47.624  -1.995  15.873  0.00  0.00     0.110 A 
HETATM    9  C   UNK     0     -47.999  -1.060  16.838  0.00  0.00     0.078 A 
HETATM   10  C   UNK     0     -47.022  -0.311  17.496  0.00  0.00     0.096 A 
HETATM   11  O   UNK     0     -47.451   0.593  18.433  0.00  0.00    -0.309 OA
HETATM   12  C   UNK     0     -45.676  -0.499  17.186  0.00  0.00     0.084 A 
HETATM   13  C   UNK     0     -46.502   1.346  19.107  0.00  0.00     0.090 A 
HETATM   14  C   UNK     0     -45.180   1.261  18.895  0.00  0.00     0.094 A 
HETATM   15  C   UNK     0     -44.667   0.305  17.893  0.00  0.00     0.190 A 
HETATM   16  O   UNK     0     -43.469   0.195  17.671  0.00  0.00    -0.287 OA
HETATM   17  C   UNK     0     -45.296  -1.435  16.221  0.00  0.00     0.118 A 
HETATM   18  C   UNK     0     -46.275  -2.182  15.566  0.00  0.00     0.134 A 
BRANCH  13  19
HETATM   19  C   UNK     0     -47.073   2.290  20.090  0.00  0.00    -0.002 A 
HETATM   20  C   UNK     0     -46.437   2.494  21.318  0.00  0.00     0.014 A 
HETATM   21  C   UNK     0     -46.976   3.386  22.245  0.00  0.00     0.001 A 
HETATM   22  C   UNK     0     -48.150   4.077  21.948  0.00  0.00     0.000 A 
HETATM   23  C   UNK     0     -48.788   3.876  20.724  0.00  0.00     0.001 A 
HETATM   24  C   UNK     0     -48.249   2.984  19.796  0.00  0.00     0.014 A 
ENDBRANCH  13  19
BRANCH  17  25
HETATM   25  O   UNK     0     -43.990  -1.645  15.893  0.00  0.00    -0.357 OA
HETATM   26  H   UNK     0     -43.899  -1.849  14.950  0.00  0.00     0.217 HD
ENDBRANCH  17  25
BRANCH  18  27
HETATM   27  O   UNK     0     -45.916  -3.099  14.620  0.00  0.00    -0.356 OA
HETATM   28  H   UNK     0     -45.019  -2.886  14.310  0.00  0.00     0.218 HD
ENDBRANCH  18  27
ENDBRANCH   7   8
ENDBRANCH   5   7
BRANCH   6  29
HETATM   29  C   UNK     0     -48.328  -6.487  17.890  0.00  0.00     0.172 C 
HETATM   30  O   UNK     0     -47.562  -6.320  18.827  0.00  0.00    -0.648 OA
BRANCH  29  31
HETATM   31  O   UNK     0     -48.364  -7.603  17.123  0.00  0.00    -0.774 OA
HETATM   32  H   UNK     0     -47.604  -8.197  17.304  0.00  0.00     0.167 HD
ENDBRANCH  29  31
ENDBRANCH   6  29
BRANCH   3  33
HETATM   33  O   UNK     0     -51.357  -3.045  14.785  0.00  0.00    -0.388 OA
HETATM   34  H   UNK     0     -50.798  -2.254  14.707  0.00  0.00     0.210 HD
ENDBRANCH   3  33
BRANCH   4  35
HETATM   35  O   UNK     0     -51.257  -6.938  17.571  0.00  0.00    -0.390 OA
HETATM   36  H   UNK     0     -51.728  -6.314  18.148  0.00  0.00     0.210 HD
ENDBRANCH   4  35
BRANCH   2  37
HETATM   37  O   UNK     0     -52.208  -5.852  15.048  0.00  0.00    -0.390 OA
HETATM   38  H   UNK     0     -51.646  -6.265  14.372  0.00  0.00     0.210 HD
ENDBRANCH   2  37
TORSDOF 10
ENDMDL
MODEL 10
REMARK VINA RESULT:      -6.6      2.868      5.703
REMARK  10 active torsions:
REMARK  status: ('A' for Active; 'I' for Inactive)
REMARK    1  A    between atoms: O_2  and  C_15 
REMARK    2  A    between atoms: O_2  and  C_18 
REMARK    3  A    between atoms: O_3  and  C_12 
REMARK    4  A    between atoms: O_4  and  C_13 
REMARK    5  A    between atoms: O_5  and  C_14 
REMARK    6  A    between atoms: O_6  and  C_17 
REMARK    7  A    between atoms: O_9  and  C_20 
REMARK    8  A    between atoms: O_10  and  C_23 
REMARK    9  A    between atoms: C_16  and  C_17 
REMARK   10  A    between atoms: C_25  and  C_27 
ROOT
HETATM    1  O   UNK     0     -48.493  -2.617  16.050  0.00  0.00    -0.340 OA
HETATM    2  C   UNK     0     -51.038  -1.847  14.962  0.00  0.00     0.183 C 
HETATM    3  C   UNK     0     -49.743  -1.113  14.614  0.00  0.00     0.205 C 
HETATM    4  C   UNK     0     -50.760  -3.265  15.458  0.00  0.00     0.189 C 
HETATM    5  C   UNK     0     -48.714  -1.244  15.737  0.00  0.00     0.299 C 
HETATM    6  C   UNK     0     -49.670  -3.261  16.524  0.00  0.00     0.253 C 
ENDROOT
BRANCH   5   7
HETATM    7  O   UNK     0     -47.495  -0.649  15.290  0.00  0.00    -0.315 OA
BRANCH   7   8
HETATM    8  C   UNK     0     -46.472  -0.601  16.191  0.00  0.00     0.110 A 
HETATM    9  C   UNK     0     -46.573   0.248  17.294  0.00  0.00     0.078 A 
HETATM   10  C   UNK     0     -45.532   0.305  18.222  0.00  0.00     0.096 A 
HETATM   11  O   UNK     0     -45.687   1.158  19.285  0.00  0.00    -0.309 OA
HETATM   12  C   UNK     0     -44.397  -0.485  18.045  0.00  0.00     0.084 A 
HETATM   13  C   UNK     0     -44.672   1.230  20.227  0.00  0.00     0.090 A 
HETATM   14  C   UNK     0     -43.531   0.526  20.164  0.00  0.00     0.094 A 
HETATM   15  C   UNK     0     -43.315  -0.404  19.038  0.00  0.00     0.190 A 
HETATM   16  O   UNK     0     -42.290  -1.066  18.944  0.00  0.00    -0.287 OA
HETATM   17  C   UNK     0     -44.293  -1.336  16.942  0.00  0.00     0.118 A 
HETATM   18  C   UNK     0     -45.335  -1.391  16.016  0.00  0.00     0.134 A 
BRANCH  13  19
HETATM   19  C   UNK     0     -44.939   2.181  21.325  0.00  0.00    -0.002 A 
HETATM   20  C   UNK     0     -46.250   2.576  21.608  0.00  0.00     0.014 A 
HETATM   21  C   UNK     0     -46.502   3.474  22.646  0.00  0.00     0.001 A 
HETATM   22  C   UNK     0     -45.446   3.979  23.404  0.00  0.00     0.000 A 
HETATM   23  C   UNK     0     -44.137   3.587  23.124  0.00  0.00     0.001 A 
HETATM   24  C   UNK     0     -43.885   2.689  22.086  0.00  0.00     0.014 A 
ENDBRANCH  13  19
BRANCH  17  25
HETATM   25  O   UNK     0     -43.199  -2.122  16.737  0.00  0.00    -0.357 OA
HETATM   26  H   UNK     0     -42.547  -1.996  17.443  0.00  0.00     0.217 HD
ENDBRANCH  17  25
BRANCH  18  27
HETATM   27  O   UNK     0     -45.245  -2.218  14.934  0.00  0.00    -0.356 OA
HETATM   28  H   UNK     0     -44.317  -2.493  14.834  0.00  0.00     0.218 HD
ENDBRANCH  18  27
ENDBRANCH   7   8
ENDBRANCH   5   7
BRANCH   6  29
HETATM   29  C   UNK     0     -49.206  -4.649  16.822  0.00  0.00     0.172 C 
HETATM   30  O   UNK     0     -49.727  -5.670  16.395  0.00  0.00    -0.648 OA
BRANCH  29  31
HETATM   31  O   UNK     0     -48.123  -4.628  17.637  0.00  0.00    -0.774 OA
HETATM   32  H   UNK     0     -47.295  -4.831  17.152  0.00  0.00     0.167 HD
ENDBRANCH  29  31
ENDBRANCH   6  29
BRANCH   3  33
HETATM   33  O   UNK     0     -50.022   0.275  14.422  0.00  0.00    -0.388 OA
HETATM   34  H   UNK     0     -49.254   0.776  14.743  0.00  0.00     0.210 HD
ENDBRANCH   3  33
BRANCH   4  35
HETATM   35  O   UNK     0     -51.952  -3.804  16.025  0.00  0.00    -0.390 OA
HETATM   36  H   UNK     0     -52.646  -3.125  15.969  0.00  0.00     0.210 HD
ENDBRANCH   4  35
BRANCH   2  37
HETATM   37  O   UNK     0     -51.861  -1.939  13.798  0.00  0.00    -0.390 OA
HETATM   38  H   UNK     0     -51.552  -1.271  13.165  0.00  0.00     0.210 HD
ENDBRANCH   2  37
TORSDOF 10
ENDMDL
