MODEL 1
REMARK VINA RESULT:      -5.6      0.000      0.000
REMARK  7 active torsions:
REMARK  status: ('A' for Active; 'I' for Inactive)
REMARK    1  A    between atoms: O_2  and  C_10 
REMARK    2  A    between atoms: O_3  and  C_11 
REMARK    3  A    between atoms: O_4  and  C_14 
REMARK    4  A    between atoms: O_6  and  N_9 
REMARK    5  A    between atoms: N_7  and  C_12 
REMARK    6  A    between atoms: N_9  and  C_18 
REMARK    7  A    between atoms: C_13  and  C_14 
ROOT
HETATM    1  O   UNK     0     -45.807  -0.772  19.034  0.00  0.00    -0.353 OA
HETATM    2  C   UNK     0     -43.915  -1.468  17.789  0.00  0.00     0.198 C 
HETATM    3  C   UNK     0     -43.438  -0.790  19.056  0.00  0.00     0.182 C 
HETATM    4  C   UNK     0     -45.358  -1.795  18.130  0.00  0.00     0.264 C 
HETATM    5  C   UNK     0     -44.670  -0.001  19.478  0.00  0.00     0.179 C 
ENDROOT
BRANCH   4   6
HETATM    6  N   UNK     0     -46.207  -1.800  16.974  0.00  0.00    -0.278 N 
HETATM    7  C   UNK     0     -46.129  -0.739  16.086  0.00  0.00     0.102 A 
HETATM    8  C   UNK     0     -46.877  -0.662  14.987  0.00  0.00     0.070 A 
HETATM    9  C   UNK     0     -47.820  -1.786  14.751  0.00  0.00     0.153 A 
HETATM   10  N   UNK     0     -47.907  -2.793  15.578  0.00  0.00    -0.174 NA
HETATM   11  C   UNK     0     -47.118  -2.856  16.714  0.00  0.00     0.352 A 
HETATM   12  O   UNK     0     -47.212  -3.814  17.482  0.00  0.00    -0.244 OA
BRANCH   9  13
HETATM   13  N   UNK     0     -48.614  -1.744  13.627  0.00  0.00    -0.251 N 
HETATM   14  H   UNK     0     -49.122  -0.942  13.273  0.00  0.00     0.196 HD
BRANCH  13  15
HETATM   15  O   UNK     0     -48.598  -2.902  12.906  0.00  0.00    -0.288 OA
HETATM   16  H   UNK     0     -49.177  -2.681  12.157  0.00  0.00     0.244 HD
ENDBRANCH  13  15
ENDBRANCH   9  13
ENDBRANCH   4   6
BRANCH   5  17
HETATM   17  C   UNK     0     -44.751   1.377  18.833  0.00  0.00     0.198 C 
BRANCH  17  18
HETATM   18  O   UNK     0     -46.115   1.700  18.627  0.00  0.00    -0.398 OA
HETATM   19  H   UNK     0     -46.383   2.287  19.355  0.00  0.00     0.209 HD
ENDBRANCH  17  18
ENDBRANCH   5  17
BRANCH   2  20
HETATM   20  O   UNK     0     -43.156  -2.619  17.478  0.00  0.00    -0.388 OA
HETATM   21  H   UNK     0     -43.698  -3.179  16.898  0.00  0.00     0.210 HD
ENDBRANCH   2  20
BRANCH   3  22
HETATM   22  O   UNK     0     -43.172  -1.762  20.067  0.00  0.00    -0.390 OA
HETATM   23  H   UNK     0     -43.688  -1.545  20.861  0.00  0.00     0.210 HD
ENDBRANCH   3  22
TORSDOF 7
ENDMDL
MODEL 2
REMARK VINA RESULT:      -5.5      1.869      2.269
REMARK  7 active torsions:
REMARK  status: ('A' for Active; 'I' for Inactive)
REMARK    1  A    between atoms: O_2  and  C_10 
REMARK    2  A    between atoms: O_3  and  C_11 
REMARK    3  A    between atoms: O_4  and  C_14 
REMARK    4  A    between atoms: O_6  and  N_9 
REMARK    5  A    between atoms: N_7  and  C_12 
REMARK    6  A    between atoms: N_9  and  C_18 
REMARK    7  A    between atoms: C_13  and  C_14 
ROOT
HETATM    1  O   UNK     0     -46.310  -1.974  17.775  0.00  0.00    -0.353 OA
HETATM    2  C   UNK     0     -45.133  -1.423  15.795  0.00  0.00     0.198 C 
HETATM    3  C   UNK     0     -44.210  -1.221  16.978  0.00  0.00     0.182 C 
HETATM    4  C   UNK     0     -46.210  -2.316  16.384  0.00  0.00     0.264 C 
HETATM    5  C   UNK     0     -45.194  -1.132  18.137  0.00  0.00     0.179 C 
ENDROOT
BRANCH   4   6
HETATM    6  N   UNK     0     -47.488  -2.117  15.762  0.00  0.00    -0.278 N 
HETATM    7  C   UNK     0     -47.698  -0.959  15.029  0.00  0.00     0.102 A 
HETATM    8  C   UNK     0     -48.850  -0.693  14.417  0.00  0.00     0.070 A 
HETATM    9  C   UNK     0     -49.924  -1.711  14.559  0.00  0.00     0.153 A 
HETATM   10  N   UNK     0     -49.742  -2.807  15.247  0.00  0.00    -0.174 NA
HETATM   11  C   UNK     0     -48.535  -3.067  15.874  0.00  0.00     0.352 A 
HETATM   12  O   UNK     0     -48.381  -4.106  16.516  0.00  0.00    -0.244 OA
BRANCH   9  13
HETATM   13  N   UNK     0     -51.131  -1.473  13.944  0.00  0.00    -0.251 N 
HETATM   14  H   UNK     0     -51.755  -2.164  13.544  0.00  0.00     0.196 HD
BRANCH  13  15
HETATM   15  O   UNK     0     -51.520  -0.166  13.995  0.00  0.00    -0.288 OA
HETATM   16  H   UNK     0     -50.678   0.288  14.165  0.00  0.00     0.244 HD
ENDBRANCH  13  15
ENDBRANCH   9  13
ENDBRANCH   4   6
BRANCH   5  17
HETATM   17  C   UNK     0     -45.721   0.278  18.372  0.00  0.00     0.198 C 
BRANCH  17  18
HETATM   18  O   UNK     0     -44.666   1.198  18.153  0.00  0.00    -0.398 OA
HETATM   19  H   UNK     0     -44.107   1.187  18.949  0.00  0.00     0.209 HD
ENDBRANCH  17  18
ENDBRANCH   5  17
BRANCH   2  20
HETATM   20  O   UNK     0     -44.473  -2.019  14.696  0.00  0.00    -0.388 OA
HETATM   21  H   UNK     0     -44.898  -1.691  13.887  0.00  0.00     0.210 HD
ENDBRANCH   2  20
BRANCH   3  22
HETATM   22  O   UNK     0     -43.400  -2.379  17.178  0.00  0.00    -0.390 OA
HETATM   23  H   UNK     0     -43.947  -3.173  17.060  0.00  0.00     0.210 HD
ENDBRANCH   3  22
TORSDOF 7
ENDMDL
MODEL 3
REMARK VINA RESULT:      -5.3      2.532      3.303
REMARK  7 active torsions:
REMARK  status: ('A' for Active; 'I' for Inactive)
REMARK    1  A    between atoms: O_2  and  C_10 
REMARK    2  A    between atoms: O_3  and  C_11 
REMARK    3  A    between atoms: O_4  and  C_14 
REMARK    4  A    between atoms: O_6  and  N_9 
REMARK    5  A    between atoms: N_7  and  C_12 
REMARK    6  A    between atoms: N_9  and  C_18 
REMARK    7  A    between atoms: C_13  and  C_14 
ROOT
HETATM    1  O   UNK     0     -46.429  -2.290  17.849  0.00  0.00    -0.353 OA
HETATM    2  C   UNK     0     -46.148  -2.202  15.499  0.00  0.00     0.198 C 
HETATM    3  C   UNK     0     -45.120  -1.297  16.144  0.00  0.00     0.182 C 
HETATM    4  C   UNK     0     -46.563  -3.086  16.661  0.00  0.00     0.264 C 
HETATM    5  C   UNK     0     -45.711  -1.079  17.529  0.00  0.00     0.179 C 
ENDROOT
BRANCH   4   6
HETATM    6  N   UNK     0     -47.922  -3.535  16.551  0.00  0.00    -0.278 N 
HETATM    7  C   UNK     0     -48.796  -2.818  15.749  0.00  0.00     0.102 A 
HETATM    8  C   UNK     0     -50.072  -3.163  15.588  0.00  0.00     0.070 A 
HETATM    9  C   UNK     0     -50.527  -4.372  16.321  0.00  0.00     0.153 A 
HETATM   10  N   UNK     0     -49.716  -5.059  17.082  0.00  0.00    -0.174 NA
HETATM   11  C   UNK     0     -48.392  -4.685  17.235  0.00  0.00     0.352 A 
HETATM   12  O   UNK     0     -47.640  -5.345  17.954  0.00  0.00    -0.244 OA
BRANCH   9  13
HETATM   13  N   UNK     0     -51.840  -4.761  16.183  0.00  0.00    -0.251 N 
HETATM   14  H   UNK     0     -52.646  -4.352  16.641  0.00  0.00     0.196 HD
BRANCH  13  15
HETATM   15  O   UNK     0     -52.023  -5.738  15.248  0.00  0.00    -0.288 OA
HETATM   16  H   UNK     0     -52.137  -5.218  14.434  0.00  0.00     0.244 HD
ENDBRANCH  13  15
ENDBRANCH   9  13
ENDBRANCH   4   6
BRANCH   5  17
HETATM   17  C   UNK     0     -46.695   0.084  17.587  0.00  0.00     0.198 C 
BRANCH  17  18
HETATM   18  O   UNK     0     -46.045   1.196  18.176  0.00  0.00    -0.398 OA
HETATM   19  H   UNK     0     -45.481   0.854  18.890  0.00  0.00     0.209 HD
ENDBRANCH  17  18
ENDBRANCH   5  17
BRANCH   2  20
HETATM   20  O   UNK     0     -45.612  -2.939  14.419  0.00  0.00    -0.388 OA
HETATM   21  H   UNK     0     -46.357  -3.337  13.938  0.00  0.00     0.210 HD
ENDBRANCH   2  20
BRANCH   3  22
HETATM   22  O   UNK     0     -43.880  -1.989  16.299  0.00  0.00    -0.390 OA
HETATM   23  H   UNK     0     -43.750  -2.199  17.238  0.00  0.00     0.210 HD
ENDBRANCH   3  22
TORSDOF 7
ENDMDL
MODEL 4
REMARK VINA RESULT:      -5.2      2.211      6.032
REMARK  7 active torsions:
REMARK  status: ('A' for Active; 'I' for Inactive)
REMARK    1  A    between atoms: O_2  and  C_10 
REMARK    2  A    between atoms: O_3  and  C_11 
REMARK    3  A    between atoms: O_4  and  C_14 
REMARK    4  A    between atoms: O_6  and  N_9 
REMARK    5  A    between atoms: N_7  and  C_12 
REMARK    6  A    between atoms: N_9  and  C_18 
REMARK    7  A    between atoms: C_13  and  C_14 
ROOT
HETATM    1  O   UNK     0     -49.516  -1.484  16.272  0.00  0.00    -0.353 OA
HETATM    2  C   UNK     0     -48.621  -1.066  14.119  0.00  0.00     0.198 C 
HETATM    3  C   UNK     0     -50.041  -1.566  13.964  0.00  0.00     0.182 C 
HETATM    4  C   UNK     0     -48.597  -0.629  15.572  0.00  0.00     0.264 C 
HETATM    5  C   UNK     0     -50.295  -2.228  15.311  0.00  0.00     0.179 C 
ENDROOT
BRANCH   4   6
HETATM    6  N   UNK     0     -47.295  -0.761  16.163  0.00  0.00    -0.278 N 
HETATM    7  C   UNK     0     -46.371  -1.597  15.557  0.00  0.00     0.102 A 
HETATM    8  C   UNK     0     -45.141  -1.778  16.034  0.00  0.00     0.070 A 
HETATM    9  C   UNK     0     -44.797  -1.031  17.272  0.00  0.00     0.153 A 
HETATM   10  N   UNK     0     -45.657  -0.239  17.856  0.00  0.00    -0.174 NA
HETATM   11  C   UNK     0     -46.931  -0.063  17.343  0.00  0.00     0.352 A 
HETATM   12  O   UNK     0     -47.728   0.689  17.905  0.00  0.00    -0.244 OA
BRANCH   9  13
HETATM   13  N   UNK     0     -43.536  -1.191  17.800  0.00  0.00    -0.251 N 
HETATM   14  H   UNK     0     -42.958  -0.473  18.221  0.00  0.00     0.196 HD
BRANCH  13  15
HETATM   15  O   UNK     0     -43.115  -2.489  17.818  0.00  0.00    -0.288 OA
HETATM   16  H   UNK     0     -43.344  -2.787  16.922  0.00  0.00     0.244 HD
ENDBRANCH  13  15
ENDBRANCH   9  13
ENDBRANCH   4   6
BRANCH   5  17
HETATM   17  C   UNK     0     -49.843  -3.683  15.360  0.00  0.00     0.198 C 
BRANCH  17  18
HETATM   18  O   UNK     0     -49.842  -4.201  14.042  0.00  0.00    -0.398 OA
HETATM   19  H   UNK     0     -49.957  -5.164  14.114  0.00  0.00     0.209 HD
ENDBRANCH  17  18
ENDBRANCH   5  17
BRANCH   2  20
HETATM   20  O   UNK     0     -48.324  -0.010  13.228  0.00  0.00    -0.388 OA
HETATM   21  H   UNK     0     -48.474   0.824  13.704  0.00  0.00     0.210 HD
ENDBRANCH   2  20
BRANCH   3  22
HETATM   22  O   UNK     0     -50.942  -0.465  13.839  0.00  0.00    -0.390 OA
HETATM   23  H   UNK     0     -50.604   0.147  13.165  0.00  0.00     0.210 HD
ENDBRANCH   3  22
TORSDOF 7
ENDMDL
MODEL 5
REMARK VINA RESULT:      -5.2      2.307      5.683
REMARK  7 active torsions:
REMARK  status: ('A' for Active; 'I' for Inactive)
REMARK    1  A    between atoms: O_2  and  C_10 
REMARK    2  A    between atoms: O_3  and  C_11 
REMARK    3  A    between atoms: O_4  and  C_14 
REMARK    4  A    between atoms: O_6  and  N_9 
REMARK    5  A    between atoms: N_7  and  C_12 
REMARK    6  A    between atoms: N_9  and  C_18 
REMARK    7  A    between atoms: C_13  and  C_14 
ROOT
HETATM    1  O   UNK     0     -48.328  -0.237  15.469  0.00  0.00    -0.353 OA
HETATM    2  C   UNK     0     -47.249  -2.324  15.163  0.00  0.00     0.198 C 
HETATM    3  C   UNK     0     -48.631  -2.398  14.548  0.00  0.00     0.182 C 
HETATM    4  C   UNK     0     -47.032  -0.825  15.271  0.00  0.00     0.264 C 
HETATM    5  C   UNK     0     -49.343  -1.233  15.223  0.00  0.00     0.179 C 
ENDROOT
BRANCH   4   6
HETATM    6  N   UNK     0     -46.185  -0.472  16.374  0.00  0.00    -0.278 N 
HETATM    7  C   UNK     0     -46.760   0.108  17.495  0.00  0.00     0.102 A 
HETATM    8  C   UNK     0     -46.052   0.466  18.564  0.00  0.00     0.070 A 
HETATM    9  C   UNK     0     -44.589   0.213  18.502  0.00  0.00     0.153 A 
HETATM   10  N   UNK     0     -44.031  -0.331  17.453  0.00  0.00    -0.174 NA
HETATM   11  C   UNK     0     -44.786  -0.698  16.351  0.00  0.00     0.352 A 
HETATM   12  O   UNK     0     -44.244  -1.212  15.372  0.00  0.00    -0.244 OA
BRANCH   9  13
HETATM   13  N   UNK     0     -43.820   0.571  19.586  0.00  0.00    -0.251 N 
HETATM   14  H   UNK     0     -44.123   1.095  20.398  0.00  0.00     0.196 HD
BRANCH  13  15
HETATM   15  O   UNK     0     -42.557   0.056  19.551  0.00  0.00    -0.288 OA
HETATM   16  H   UNK     0     -42.715  -0.877  19.771  0.00  0.00     0.244 HD
ENDBRANCH  13  15
ENDBRANCH   9  13
ENDBRANCH   4   6
BRANCH   5  17
HETATM   17  C   UNK     0     -49.974  -1.607  16.559  0.00  0.00     0.198 C 
BRANCH  17  18
HETATM   18  O   UNK     0     -50.529  -2.905  16.450  0.00  0.00    -0.398 OA
HETATM   19  H   UNK     0     -50.792  -3.180  17.345  0.00  0.00     0.209 HD
ENDBRANCH  17  18
ENDBRANCH   5  17
BRANCH   2  20
HETATM   20  O   UNK     0     -46.272  -2.959  14.364  0.00  0.00    -0.388 OA
HETATM   21  H   UNK     0     -45.604  -3.334  14.962  0.00  0.00     0.210 HD
ENDBRANCH   2  20
BRANCH   3  22
HETATM   22  O   UNK     0     -48.565  -2.121  13.149  0.00  0.00    -0.390 OA
HETATM   23  H   UNK     0     -47.667  -1.826  12.926  0.00  0.00     0.210 HD
ENDBRANCH   3  22
TORSDOF 7
ENDMDL
MODEL 6
REMARK VINA RESULT:      -5.1      2.632      6.321
REMARK  7 active torsions:
REMARK  status: ('A' for Active; 'I' for Inactive)
REMARK    1  A    between atoms: O_2  and  C_10 
REMARK    2  A    between atoms: O_3  and  C_11 
REMARK    3  A    between atoms: O_4  and  C_14 
REMARK    4  A    between atoms: O_6  and  N_9 
REMARK    5  A    between atoms: N_7  and  C_12 
REMARK    6  A    between atoms: N_9  and  C_18 
REMARK    7  A    between atoms: C_13  and  C_14 
ROOT
HETATM    1  O   UNK     0     -49.968  -2.697  16.889  0.00  0.00    -0.353 OA
HETATM    2  C   UNK     0     -49.768  -2.942  14.541  0.00  0.00     0.198 C 
HETATM    3  C   UNK     0     -51.097  -3.521  14.977  0.00  0.00     0.182 C 
HETATM    4  C   UNK     0     -49.400  -2.069  15.727  0.00  0.00     0.264 C 
HETATM    5  C   UNK     0     -50.877  -3.736  16.468  0.00  0.00     0.179 C 
ENDROOT
BRANCH   4   6
HETATM    6  N   UNK     0     -47.980  -1.956  15.906  0.00  0.00    -0.278 N 
HETATM    7  C   UNK     0     -47.351  -2.815  16.794  0.00  0.00     0.102 A 
HETATM    8  C   UNK     0     -46.039  -2.782  17.020  0.00  0.00     0.070 A 
HETATM    9  C   UNK     0     -45.264  -1.764  16.265  0.00  0.00     0.153 A 
HETATM   10  N   UNK     0     -45.842  -0.947  15.425  0.00  0.00    -0.174 NA
HETATM   11  C   UNK     0     -47.208  -0.998  15.201  0.00  0.00     0.352 A 
HETATM   12  O   UNK     0     -47.736  -0.222  14.404  0.00  0.00    -0.244 OA
BRANCH   9  13
HETATM   13  N   UNK     0     -43.905  -1.695  16.471  0.00  0.00    -0.251 N 
HETATM   14  H   UNK     0     -43.257  -1.050  16.035  0.00  0.00     0.196 HD
BRANCH  13  15
HETATM   15  O   UNK     0     -43.459  -2.541  17.445  0.00  0.00    -0.288 OA
HETATM   16  H   UNK     0     -43.453  -1.963  18.226  0.00  0.00     0.244 HD
ENDBRANCH  13  15
ENDBRANCH   9  13
ENDBRANCH   4   6
BRANCH   5  17
HETATM   17  C   UNK     0     -50.242  -5.082  16.794  0.00  0.00     0.198 C 
BRANCH  17  18
HETATM   18  O   UNK     0     -51.028  -6.106  16.213  0.00  0.00    -0.398 OA
HETATM   19  H   UNK     0     -51.280  -6.715  16.930  0.00  0.00     0.209 HD
ENDBRANCH  17  18
ENDBRANCH   5  17
BRANCH   2  20
HETATM   20  O   UNK     0     -49.872  -2.208  13.338  0.00  0.00    -0.388 OA
HETATM   21  H   UNK     0     -50.790  -1.898  13.263  0.00  0.00     0.210 HD
ENDBRANCH   2  20
BRANCH   3  22
HETATM   22  O   UNK     0     -52.134  -2.552  14.821  0.00  0.00    -0.390 OA
HETATM   23  H   UNK     0     -52.939  -2.876  15.259  0.00  0.00     0.210 HD
ENDBRANCH   3  22
TORSDOF 7
ENDMDL
MODEL 7
REMARK VINA RESULT:      -5.0      3.203      5.012
REMARK  7 active torsions:
REMARK  status: ('A' for Active; 'I' for Inactive)
REMARK    1  A    between atoms: O_2  and  C_10 
REMARK    2  A    between atoms: O_3  and  C_11 
REMARK    3  A    between atoms: O_4  and  C_14 
REMARK    4  A    between atoms: O_6  and  N_9 
REMARK    5  A    between atoms: N_7  and  C_12 
REMARK    6  A    between atoms: N_9  and  C_18 
REMARK    7  A    between atoms: C_13  and  C_14 
ROOT
HETATM    1  O   UNK     0     -46.890  -2.117  17.587  0.00  0.00    -0.353 OA
HETATM    2  C   UNK     0     -46.459  -0.701  15.737  0.00  0.00     0.198 C 
HETATM    3  C   UNK     0     -45.579  -1.928  15.623  0.00  0.00     0.182 C 
HETATM    4  C   UNK     0     -47.522  -1.166  16.715  0.00  0.00     0.264 C 
HETATM    5  C   UNK     0     -45.597  -2.467  17.047  0.00  0.00     0.179 C 
ENDROOT
BRANCH   4   6
HETATM    6  N   UNK     0     -48.049  -0.089  17.505  0.00  0.00    -0.278 N 
HETATM    7  C   UNK     0     -47.164   0.733  18.185  0.00  0.00     0.102 A 
HETATM    8  C   UNK     0     -47.563   1.755  18.938  0.00  0.00     0.070 A 
HETATM    9  C   UNK     0     -49.030   1.980  19.022  0.00  0.00     0.153 A 
HETATM   10  N   UNK     0     -49.878   1.214  18.388  0.00  0.00    -0.174 NA
HETATM   11  C   UNK     0     -49.442   0.157  17.608  0.00  0.00     0.352 A 
HETATM   12  O   UNK     0     -50.256  -0.554  17.015  0.00  0.00    -0.244 OA
BRANCH   9  13
HETATM   13  N   UNK     0     -49.485   3.025  19.793  0.00  0.00    -0.251 N 
HETATM   14  H   UNK     0     -50.441   3.195  20.081  0.00  0.00     0.196 HD
BRANCH  13  15
HETATM   15  O   UNK     0     -48.487   3.827  20.267  0.00  0.00    -0.288 OA
HETATM   16  H   UNK     0     -48.447   3.565  21.202  0.00  0.00     0.244 HD
ENDBRANCH  13  15
ENDBRANCH   9  13
ENDBRANCH   4   6
BRANCH   5  17
HETATM   17  C   UNK     0     -44.528  -1.847  17.938  0.00  0.00     0.198 C 
BRANCH  17  18
HETATM   18  O   UNK     0     -43.257  -2.271  17.482  0.00  0.00    -0.398 OA
HETATM   19  H   UNK     0     -42.758  -2.571  18.261  0.00  0.00     0.209 HD
ENDBRANCH  17  18
ENDBRANCH   5  17
BRANCH   2  20
HETATM   20  O   UNK     0     -46.999  -0.311  14.491  0.00  0.00    -0.388 OA
HETATM   21  H   UNK     0     -47.756   0.272  14.670  0.00  0.00     0.210 HD
ENDBRANCH   2  20
BRANCH   3  22
HETATM   22  O   UNK     0     -46.194  -2.901  14.777  0.00  0.00    -0.390 OA
HETATM   23  H   UNK     0     -47.155  -2.877  14.914  0.00  0.00     0.210 HD
ENDBRANCH   3  22
TORSDOF 7
ENDMDL
MODEL 8
REMARK VINA RESULT:      -4.9      2.320      5.855
REMARK  7 active torsions:
REMARK  status: ('A' for Active; 'I' for Inactive)
REMARK    1  A    between atoms: O_2  and  C_10 
REMARK    2  A    between atoms: O_3  and  C_11 
REMARK    3  A    between atoms: O_4  and  C_14 
REMARK    4  A    between atoms: O_6  and  N_9 
REMARK    5  A    between atoms: N_7  and  C_12 
REMARK    6  A    between atoms: N_9  and  C_18 
REMARK    7  A    between atoms: C_13  and  C_14 
ROOT
HETATM    1  O   UNK     0     -48.375  -1.836  14.138  0.00  0.00    -0.353 OA
HETATM    2  C   UNK     0     -49.219  -2.888  16.086  0.00  0.00     0.198 C 
HETATM    3  C   UNK     0     -50.142  -3.202  14.927  0.00  0.00     0.182 C 
HETATM    4  C   UNK     0     -47.956  -2.443  15.371  0.00  0.00     0.264 C 
HETATM    5  C   UNK     0     -49.776  -2.116  13.925  0.00  0.00     0.179 C 
ENDROOT
BRANCH   4   6
HETATM    6  N   UNK     0     -47.204  -1.485  16.130  0.00  0.00    -0.278 N 
HETATM    7  C   UNK     0     -47.871  -0.698  17.056  0.00  0.00     0.102 A 
HETATM    8  C   UNK     0     -47.254   0.213  17.805  0.00  0.00     0.070 A 
HETATM    9  C   UNK     0     -45.789   0.355  17.599  0.00  0.00     0.153 A 
HETATM   10  N   UNK     0     -45.145  -0.379  16.730  0.00  0.00    -0.174 NA
HETATM   11  C   UNK     0     -45.805  -1.324  15.963  0.00  0.00     0.352 A 
HETATM   12  O   UNK     0     -45.181  -2.008  15.150  0.00  0.00    -0.244 OA
BRANCH   9  13
HETATM   13  N   UNK     0     -45.114   1.288  18.352  0.00  0.00    -0.251 N 
HETATM   14  H   UNK     0     -45.516   2.075  18.846  0.00  0.00     0.196 HD
BRANCH  13  15
HETATM   15  O   UNK     0     -43.783   1.017  18.489  0.00  0.00    -0.288 OA
HETATM   16  H   UNK     0     -43.385   1.643  17.862  0.00  0.00     0.244 HD
ENDBRANCH  13  15
ENDBRANCH   9  13
ENDBRANCH   4   6
BRANCH   5  17
HETATM   17  C   UNK     0     -50.554  -0.822  14.128  0.00  0.00     0.198 C 
BRANCH  17  18
HETATM   18  O   UNK     0     -50.216   0.077  13.088  0.00  0.00    -0.398 OA
HETATM   19  H   UNK     0     -50.724   0.893  13.238  0.00  0.00     0.209 HD
ENDBRANCH  17  18
ENDBRANCH   5  17
BRANCH   2  20
HETATM   20  O   UNK     0     -49.005  -4.009  16.920  0.00  0.00    -0.388 OA
HETATM   21  H   UNK     0     -48.639  -3.682  17.759  0.00  0.00     0.210 HD
ENDBRANCH   2  20
BRANCH   3  22
HETATM   22  O   UNK     0     -49.803  -4.464  14.352  0.00  0.00    -0.390 OA
HETATM   23  H   UNK     0     -50.579  -5.047  14.386  0.00  0.00     0.210 HD
ENDBRANCH   3  22
TORSDOF 7
ENDMDL
MODEL 9
REMARK VINA RESULT:      -4.9      2.742      5.555
REMARK  7 active torsions:
REMARK  status: ('A' for Active; 'I' for Inactive)
REMARK    1  A    between atoms: O_2  and  C_10 
REMARK    2  A    between atoms: O_3  and  C_11 
REMARK    3  A    between atoms: O_4  and  C_14 
REMARK    4  A    between atoms: O_6  and  N_9 
REMARK    5  A    between atoms: N_7  and  C_12 
REMARK    6  A    between atoms: N_9  and  C_18 
REMARK    7  A    between atoms: C_13  and  C_14 
ROOT
HETATM    1  O   UNK     0     -47.050  -0.382  15.474  0.00  0.00    -0.353 OA
HETATM    2  C   UNK     0     -46.043  -2.113  16.740  0.00  0.00     0.198 C 
HETATM    3  C   UNK     0     -46.610  -2.710  15.470  0.00  0.00     0.182 C 
HETATM    4  C   UNK     0     -45.974  -0.637  16.392  0.00  0.00     0.264 C 
HETATM    5  C   UNK     0     -47.601  -1.641  15.030  0.00  0.00     0.179 C 
ENDROOT
BRANCH   4   6
HETATM    6  N   UNK     0     -46.134   0.207  17.542  0.00  0.00    -0.278 N 
HETATM    7  C   UNK     0     -47.410   0.620  17.892  0.00  0.00     0.102 A 
HETATM    8  C   UNK     0     -47.651   1.401  18.943  0.00  0.00     0.070 A 
HETATM    9  C   UNK     0     -46.468   1.820  19.739  0.00  0.00     0.153 A 
HETATM   10  N   UNK     0     -45.259   1.440  19.422  0.00  0.00    -0.174 NA
HETATM   11  C   UNK     0     -45.029   0.626  18.326  0.00  0.00     0.352 A 
HETATM   12  O   UNK     0     -43.883   0.276  18.043  0.00  0.00    -0.244 OA
BRANCH   9  13
HETATM   13  N   UNK     0     -46.674   2.629  20.833  0.00  0.00    -0.251 N 
HETATM   14  H   UNK     0     -47.467   3.238  20.997  0.00  0.00     0.196 HD
BRANCH  13  15
HETATM   15  O   UNK     0     -45.729   2.481  21.806  0.00  0.00    -0.288 OA
HETATM   16  H   UNK     0     -45.359   3.378  21.866  0.00  0.00     0.244 HD
ENDBRANCH  13  15
ENDBRANCH   9  13
ENDBRANCH   4   6
BRANCH   5  17
HETATM   17  C   UNK     0     -48.979  -1.802  15.660  0.00  0.00     0.198 C 
BRANCH  17  18
HETATM   18  O   UNK     0     -49.388  -3.151  15.514  0.00  0.00    -0.398 OA
HETATM   19  H   UNK     0     -49.349  -3.360  14.565  0.00  0.00     0.209 HD
ENDBRANCH  17  18
ENDBRANCH   5  17
BRANCH   2  20
HETATM   20  O   UNK     0     -44.779  -2.653  17.069  0.00  0.00    -0.388 OA
HETATM   21  H   UNK     0     -44.317  -2.845  16.236  0.00  0.00     0.210 HD
ENDBRANCH   2  20
BRANCH   3  22
HETATM   22  O   UNK     0     -45.594  -2.805  14.471  0.00  0.00    -0.390 OA
HETATM   23  H   UNK     0     -45.335  -3.735  14.370  0.00  0.00     0.210 HD
ENDBRANCH   3  22
TORSDOF 7
ENDMDL
MODEL 10
REMARK VINA RESULT:      -4.6      2.868      4.296
REMARK  7 active torsions:
REMARK  status: ('A' for Active; 'I' for Inactive)
REMARK    1  A    between atoms: O_2  and  C_10 
REMARK    2  A    between atoms: O_3  and  C_11 
REMARK    3  A    between atoms: O_4  and  C_14 
REMARK    4  A    between atoms: O_6  and  N_9 
REMARK    5  A    between atoms: N_7  and  C_12 
REMARK    6  A    between atoms: N_9  and  C_18 
REMARK    7  A    between atoms: C_13  and  C_14 
ROOT
HETATM    1  O   UNK     0     -47.352  -0.395  20.109  0.00  0.00    -0.353 OA
HETATM    2  C   UNK     0     -47.772   1.622  18.938  0.00  0.00     0.198 C 
HETATM    3  C   UNK     0     -48.654   1.583  20.168  0.00  0.00     0.182 C 
HETATM    4  C   UNK     0     -46.714   0.587  19.276  0.00  0.00     0.264 C 
HETATM    5  C   UNK     0     -48.644   0.102  20.521  0.00  0.00     0.179 C 
ENDROOT
BRANCH   4   6
HETATM    6  N   UNK     0     -46.188  -0.062  18.109  0.00  0.00    -0.278 N 
HETATM    7  C   UNK     0     -47.017  -0.230  17.011  0.00  0.00     0.102 A 
HETATM    8  C   UNK     0     -46.613  -0.819  15.887  0.00  0.00     0.070 A 
HETATM    9  C   UNK     0     -45.207  -1.298  15.862  0.00  0.00     0.153 A 
HETATM   10  N   UNK     0     -44.412  -1.148  16.888  0.00  0.00    -0.174 NA
HETATM   11  C   UNK     0     -44.851  -0.531  18.048  0.00  0.00     0.352 A 
HETATM   12  O   UNK     0     -44.088  -0.395  19.005  0.00  0.00    -0.244 OA
BRANCH   9  13
HETATM   13  N   UNK     0     -44.750  -1.915  14.719  0.00  0.00    -0.251 N 
HETATM   14  H   UNK     0     -43.894  -1.708  14.219  0.00  0.00     0.196 HD
BRANCH  13  15
HETATM   15  O   UNK     0     -45.522  -2.968  14.323  0.00  0.00    -0.288 OA
HETATM   16  H   UNK     0     -46.403  -2.699  14.631  0.00  0.00     0.244 HD
ENDBRANCH  13  15
ENDBRANCH   9  13
ENDBRANCH   4   6
BRANCH   5  17
HETATM   17  C   UNK     0     -49.715  -0.699  19.791  0.00  0.00     0.198 C 
BRANCH  17  18
HETATM   18  O   UNK     0     -50.922   0.041  19.808  0.00  0.00    -0.398 OA
HETATM   19  H   UNK     0     -51.016   0.416  20.701  0.00  0.00     0.209 HD
ENDBRANCH  17  18
ENDBRANCH   5  17
BRANCH   2  20
HETATM   20  O   UNK     0     -47.226   2.905  18.710  0.00  0.00    -0.388 OA
HETATM   21  H   UNK     0     -46.780   3.182  19.528  0.00  0.00     0.210 HD
ENDBRANCH   2  20
BRANCH   3  22
HETATM   22  O   UNK     0     -48.039   2.296  21.241  0.00  0.00    -0.390 OA
HETATM   23  H   UNK     0     -47.194   2.664  20.933  0.00  0.00     0.210 HD
ENDBRANCH   3  22
TORSDOF 7
ENDMDL
