MODEL 1
REMARK VINA RESULT:      -3.5      0.000      0.000
REMARK  9 active torsions:
REMARK  status: ('A' for Active; 'I' for Inactive)
REMARK    1  A    between atoms: S_1  and  S_2 
REMARK    2  A    between atoms: S_1  and  C_15 
REMARK    3  A    between atoms: S_2  and  C_16 
REMARK    4  A    between atoms: N_5  and  C_7 
REMARK    5  A    between atoms: N_5  and  C_8 
REMARK    6  A    between atoms: N_5  and  C_15 
REMARK    7  A    between atoms: N_6  and  C_9 
REMARK    8  A    between atoms: N_6  and  C_10 
REMARK    9  A    between atoms: N_6  and  C_16 
ROOT
HETATM    1  S   MOL     1     -45.816  -0.728  15.767  1.00  0.00    -0.020 SA
ENDROOT
BRANCH   1   2
HETATM    2  S   MOL     1     -46.751  -2.560  15.908  1.00  0.00    -0.020 SA
BRANCH   2   3
HETATM    3  C   MOL     1     -48.434  -2.130  15.530  1.00  0.00     0.147 C 
HETATM    4  S   MOL     1     -48.710  -0.918  14.383  1.00  0.00    -0.052 SA
BRANCH   3   5
HETATM    5  N   MOL     1     -49.434  -2.859  16.205  1.00  0.00    -0.367 N 
BRANCH   5   6
HETATM    6  C   MOL     1     -49.534  -4.318  16.112  1.00  0.00     0.120 C 
HETATM    7  C   MOL     1     -50.470  -4.740  14.999  1.00  0.00     0.026 C 
ENDBRANCH   5   6
BRANCH   5   8
HETATM    8  C   MOL     1     -50.449  -2.258  17.075  1.00  0.00     0.120 C 
HETATM    9  C   MOL     1     -50.553  -2.991  18.396  1.00  0.00     0.026 C 
ENDBRANCH   5   8
ENDBRANCH   3   5
ENDBRANCH   2   3
ENDBRANCH   1   2
BRANCH   1  10
HETATM   10  C   MOL     1     -45.866  -0.172  17.454  1.00  0.00     0.147 C 
HETATM   11  S   MOL     1     -47.322   0.454  18.045  1.00  0.00    -0.052 SA
BRANCH  10  12
HETATM   12  N   MOL     1     -44.677  -0.318  18.197  1.00  0.00    -0.367 N 
BRANCH  12  13
HETATM   13  C   MOL     1     -43.714  -1.408  18.006  1.00  0.00     0.120 C 
HETATM   14  C   MOL     1     -43.061  -1.805  19.314  1.00  0.00     0.026 C 
ENDBRANCH  12  13
BRANCH  12  15
HETATM   15  C   MOL     1     -44.299   0.616  19.260  1.00  0.00     0.120 C 
HETATM   16  C   MOL     1     -43.572   1.824  18.706  1.00  0.00     0.026 C 
ENDBRANCH  12  15
ENDBRANCH  10  12
ENDBRANCH   1  10
TORSDOF 9
ENDMDL
MODEL 2
REMARK VINA RESULT:      -3.5      1.624      2.588
REMARK  9 active torsions:
REMARK  status: ('A' for Active; 'I' for Inactive)
REMARK    1  A    between atoms: S_1  and  S_2 
REMARK    2  A    between atoms: S_1  and  C_15 
REMARK    3  A    between atoms: S_2  and  C_16 
REMARK    4  A    between atoms: N_5  and  C_7 
REMARK    5  A    between atoms: N_5  and  C_8 
REMARK    6  A    between atoms: N_5  and  C_15 
REMARK    7  A    between atoms: N_6  and  C_9 
REMARK    8  A    between atoms: N_6  and  C_10 
REMARK    9  A    between atoms: N_6  and  C_16 
ROOT
HETATM    1  S   MOL     1     -47.375  -0.748  16.167  1.00  0.00    -0.020 SA
ENDROOT
BRANCH   1   2
HETATM    2  S   MOL     1     -47.777  -2.628  16.913  1.00  0.00    -0.020 SA
BRANCH   2   3
HETATM    3  C   MOL     1     -49.511  -2.789  16.554  1.00  0.00     0.147 C 
HETATM    4  S   MOL     1     -50.613  -2.021  17.580  1.00  0.00    -0.052 SA
BRANCH   3   5
HETATM    5  N   MOL     1     -49.846  -3.536  15.406  1.00  0.00    -0.367 N 
BRANCH   5   6
HETATM    6  C   MOL     1     -49.715  -2.989  14.052  1.00  0.00     0.120 C 
HETATM    7  C   MOL     1     -50.626  -1.798  13.844  1.00  0.00     0.026 C 
ENDBRANCH   5   6
BRANCH   5   8
HETATM    8  C   MOL     1     -50.330  -4.919  15.433  1.00  0.00     0.120 C 
HETATM    9  C   MOL     1     -51.843  -4.978  15.382  1.00  0.00     0.026 C 
ENDBRANCH   5   8
ENDBRANCH   3   5
ENDBRANCH   2   3
ENDBRANCH   1   2
BRANCH   1  10
HETATM   10  C   MOL     1     -46.754   0.082  17.610  1.00  0.00     0.147 C 
HETATM   11  S   MOL     1     -47.847   0.952  18.563  1.00  0.00    -0.052 SA
BRANCH  10  12
HETATM   12  N   MOL     1     -45.377  -0.067  17.874  1.00  0.00    -0.367 N 
BRANCH  12  13
HETATM   13  C   MOL     1     -44.708   0.448  19.074  1.00  0.00     0.120 C 
HETATM   14  C   MOL     1     -43.860   1.663  18.757  1.00  0.00     0.026 C 
ENDBRANCH  12  13
BRANCH  12  15
HETATM   15  C   MOL     1     -44.471  -0.746  16.946  1.00  0.00     0.120 C 
HETATM   16  C   MOL     1     -43.725  -1.876  17.625  1.00  0.00     0.026 C 
ENDBRANCH  12  15
ENDBRANCH  10  12
ENDBRANCH   1  10
TORSDOF 9
ENDMDL
MODEL 3
REMARK VINA RESULT:      -3.4      0.654      6.667
REMARK  9 active torsions:
REMARK  status: ('A' for Active; 'I' for Inactive)
REMARK    1  A    between atoms: S_1  and  S_2 
REMARK    2  A    between atoms: S_1  and  C_15 
REMARK    3  A    between atoms: S_2  and  C_16 
REMARK    4  A    between atoms: N_5  and  C_7 
REMARK    5  A    between atoms: N_5  and  C_8 
REMARK    6  A    between atoms: N_5  and  C_15 
REMARK    7  A    between atoms: N_6  and  C_9 
REMARK    8  A    between atoms: N_6  and  C_10 
REMARK    9  A    between atoms: N_6  and  C_16 
ROOT
HETATM    1  S   MOL     1     -46.835  -2.620  16.650  1.00  0.00    -0.020 SA
ENDROOT
BRANCH   1   2
HETATM    2  S   MOL     1     -46.249  -0.732  16.061  1.00  0.00    -0.020 SA
BRANCH   2   3
HETATM    3  C   MOL     1     -46.109   0.101  17.625  1.00  0.00     0.147 C 
HETATM    4  S   MOL     1     -47.519   0.702  18.338  1.00  0.00    -0.052 SA
BRANCH   3   5
HETATM    5  N   MOL     1     -44.814   0.179  18.179  1.00  0.00    -0.367 N 
BRANCH   5   6
HETATM    6  C   MOL     1     -44.440   1.212  19.148  1.00  0.00     0.120 C 
HETATM    7  C   MOL     1     -43.199   1.961  18.709  1.00  0.00     0.026 C 
ENDBRANCH   5   6
BRANCH   5   8
HETATM    8  C   MOL     1     -43.727  -0.757  17.872  1.00  0.00     0.120 C 
HETATM    9  C   MOL     1     -43.443  -1.677  19.040  1.00  0.00     0.026 C 
ENDBRANCH   5   8
ENDBRANCH   3   5
ENDBRANCH   2   3
ENDBRANCH   1   2
BRANCH   1  10
HETATM   10  C   MOL     1     -48.420  -2.763  15.860  1.00  0.00     0.147 C 
HETATM   11  S   MOL     1     -48.646  -1.983  14.376  1.00  0.00    -0.052 SA
BRANCH  10  12
HETATM   12  N   MOL     1     -49.383  -3.548  16.526  1.00  0.00    -0.367 N 
BRANCH  12  13
HETATM   13  C   MOL     1     -50.166  -3.090  17.679  1.00  0.00     0.120 C 
HETATM   14  C   MOL     1     -50.445  -1.603  17.604  1.00  0.00     0.026 C 
ENDBRANCH  12  13
BRANCH  12  15
HETATM   15  C   MOL     1     -49.680  -4.926  16.128  1.00  0.00     0.120 C 
HETATM   16  C   MOL     1     -50.794  -4.981  15.103  1.00  0.00     0.026 C 
ENDBRANCH  12  15
ENDBRANCH  10  12
ENDBRANCH   1  10
TORSDOF 9
ENDMDL
MODEL 4
REMARK VINA RESULT:      -3.4      2.609      6.395
REMARK  9 active torsions:
REMARK  status: ('A' for Active; 'I' for Inactive)
REMARK    1  A    between atoms: S_1  and  S_2 
REMARK    2  A    between atoms: S_1  and  C_15 
REMARK    3  A    between atoms: S_2  and  C_16 
REMARK    4  A    between atoms: N_5  and  C_7 
REMARK    5  A    between atoms: N_5  and  C_8 
REMARK    6  A    between atoms: N_5  and  C_15 
REMARK    7  A    between atoms: N_6  and  C_9 
REMARK    8  A    between atoms: N_6  and  C_10 
REMARK    9  A    between atoms: N_6  and  C_16 
ROOT
HETATM    1  S   MOL     1     -47.283   1.111  18.559  1.00  0.00    -0.020 SA
ENDROOT
BRANCH   1   2
HETATM    2  S   MOL     1     -46.550  -0.010  20.126  1.00  0.00    -0.020 SA
BRANCH   2   3
HETATM    3  C   MOL     1     -45.154   0.963  20.638  1.00  0.00     0.147 C 
HETATM    4  S   MOL     1     -45.362   2.044  21.922  1.00  0.00    -0.052 SA
BRANCH   3   5
HETATM    5  N   MOL     1     -43.948   0.742  19.942  1.00  0.00    -0.367 N 
BRANCH   5   6
HETATM    6  C   MOL     1     -43.072  -0.395  20.237  1.00  0.00     0.120 C 
HETATM    7  C   MOL     1     -43.084  -1.410  19.113  1.00  0.00     0.026 C 
ENDBRANCH   5   6
BRANCH   5   8
HETATM    8  C   MOL     1     -43.454   1.593  18.854  1.00  0.00     0.120 C 
HETATM    9  C   MOL     1     -42.229   2.377  19.276  1.00  0.00     0.026 C 
ENDBRANCH   5   8
ENDBRANCH   3   5
ENDBRANCH   2   3
ENDBRANCH   1   2
BRANCH   1  10
HETATM   10  C   MOL     1     -47.888  -0.154  17.468  1.00  0.00     0.147 C 
HETATM   11  S   MOL     1     -49.558  -0.414  17.395  1.00  0.00    -0.052 SA
BRANCH  10  12
HETATM   12  N   MOL     1     -46.919  -0.845  16.713  1.00  0.00    -0.367 N 
BRANCH  12  13
HETATM   13  C   MOL     1     -45.527  -0.409  16.561  1.00  0.00     0.120 C 
HETATM   14  C   MOL     1     -44.923  -0.924  15.271  1.00  0.00     0.026 C 
ENDBRANCH  12  13
BRANCH  12  15
HETATM   15  C   MOL     1     -47.228  -2.076  15.981  1.00  0.00     0.120 C 
HETATM   16  C   MOL     1     -47.189  -3.287  16.890  1.00  0.00     0.026 C 
ENDBRANCH  12  15
ENDBRANCH  10  12
ENDBRANCH   1  10
TORSDOF 9
ENDMDL
MODEL 5
REMARK VINA RESULT:      -3.4      1.575      2.613
REMARK  9 active torsions:
REMARK  status: ('A' for Active; 'I' for Inactive)
REMARK    1  A    between atoms: S_1  and  S_2 
REMARK    2  A    between atoms: S_1  and  C_15 
REMARK    3  A    between atoms: S_2  and  C_16 
REMARK    4  A    between atoms: N_5  and  C_7 
REMARK    5  A    between atoms: N_5  and  C_8 
REMARK    6  A    between atoms: N_5  and  C_15 
REMARK    7  A    between atoms: N_6  and  C_9 
REMARK    8  A    between atoms: N_6  and  C_10 
REMARK    9  A    between atoms: N_6  and  C_16 
ROOT
HETATM    1  S   MOL     1     -47.198  -0.505  16.752  1.00  0.00    -0.020 SA
ENDROOT
BRANCH   1   2
HETATM    2  S   MOL     1     -47.558  -1.881  15.259  1.00  0.00    -0.020 SA
BRANCH   2   3
HETATM    3  C   MOL     1     -48.970  -2.745  15.905  1.00  0.00     0.147 C 
HETATM    4  S   MOL     1     -49.079  -2.958  17.578  1.00  0.00    -0.052 SA
BRANCH   3   5
HETATM    5  N   MOL     1     -49.927  -3.175  14.962  1.00  0.00    -0.367 N 
BRANCH   5   6
HETATM    6  C   MOL     1     -50.392  -4.563  14.897  1.00  0.00     0.120 C 
HETATM    7  C   MOL     1     -51.782  -4.710  15.478  1.00  0.00     0.026 C 
ENDBRANCH   5   6
BRANCH   5   8
HETATM    8  C   MOL     1     -50.567  -2.297  13.977  1.00  0.00     0.120 C 
HETATM    9  C   MOL     1     -51.270  -1.135  14.644  1.00  0.00     0.026 C 
ENDBRANCH   5   8
ENDBRANCH   3   5
ENDBRANCH   2   3
ENDBRANCH   1   2
BRANCH   1  10
HETATM   10  C   MOL     1     -45.432  -0.610  16.915  1.00  0.00     0.147 C 
HETATM   11  S   MOL     1     -44.537  -1.141  15.581  1.00  0.00    -0.052 SA
BRANCH  10  12
HETATM   12  N   MOL     1     -44.892  -0.214  18.155  1.00  0.00    -0.367 N 
BRANCH  12  13
HETATM   13  C   MOL     1     -44.564   1.172  18.507  1.00  0.00     0.120 C 
HETATM   14  C   MOL     1     -45.062   1.524  19.894  1.00  0.00     0.026 C 
ENDBRANCH  12  13
BRANCH  12  15
HETATM   15  C   MOL     1     -44.588  -1.174  19.219  1.00  0.00     0.120 C 
HETATM   16  C   MOL     1     -43.141  -1.619  19.170  1.00  0.00     0.026 C 
ENDBRANCH  12  15
ENDBRANCH  10  12
ENDBRANCH   1  10
TORSDOF 9
ENDMDL
MODEL 6
REMARK VINA RESULT:      -3.4      1.380      2.164
REMARK  9 active torsions:
REMARK  status: ('A' for Active; 'I' for Inactive)
REMARK    1  A    between atoms: S_1  and  S_2 
REMARK    2  A    between atoms: S_1  and  C_15 
REMARK    3  A    between atoms: S_2  and  C_16 
REMARK    4  A    between atoms: N_5  and  C_7 
REMARK    5  A    between atoms: N_5  and  C_8 
REMARK    6  A    between atoms: N_5  and  C_15 
REMARK    7  A    between atoms: N_6  and  C_9 
REMARK    8  A    between atoms: N_6  and  C_10 
REMARK    9  A    between atoms: N_6  and  C_16 
ROOT
HETATM    1  S   MOL     1     -47.448  -0.685  16.407  1.00  0.00    -0.020 SA
ENDROOT
BRANCH   1   2
HETATM    2  S   MOL     1     -47.615  -2.234  15.056  1.00  0.00    -0.020 SA
BRANCH   2   3
HETATM    3  C   MOL     1     -49.362  -2.557  15.101  1.00  0.00     0.147 C 
HETATM    4  S   MOL     1     -50.404  -1.410  14.426  1.00  0.00    -0.052 SA
BRANCH   3   5
HETATM    5  N   MOL     1     -49.758  -3.780  15.683  1.00  0.00    -0.367 N 
BRANCH   5   6
HETATM    6  C   MOL     1     -49.491  -4.100  17.087  1.00  0.00     0.120 C 
HETATM    7  C   MOL     1     -48.646  -5.350  17.221  1.00  0.00     0.026 C 
ENDBRANCH   5   6
BRANCH   5   8
HETATM    8  C   MOL     1     -50.485  -4.835  14.970  1.00  0.00     0.120 C 
HETATM    9  C   MOL     1     -51.914  -4.948  15.456  1.00  0.00     0.026 C 
ENDBRANCH   5   8
ENDBRANCH   3   5
ENDBRANCH   2   3
ENDBRANCH   1   2
BRANCH   1  10
HETATM   10  C   MOL     1     -45.692  -0.636  16.677  1.00  0.00     0.147 C 
HETATM   11  S   MOL     1     -44.675  -1.085  15.402  1.00  0.00    -0.052 SA
BRANCH  10  12
HETATM   12  N   MOL     1     -45.266  -0.197  17.947  1.00  0.00    -0.367 N 
BRANCH  12  13
HETATM   13  C   MOL     1     -43.863  -0.148  18.374  1.00  0.00     0.120 C 
HETATM   14  C   MOL     1     -43.432  -1.454  19.010  1.00  0.00     0.026 C 
ENDBRANCH  12  13
BRANCH  12  15
HETATM   15  C   MOL     1     -46.206   0.241  18.981  1.00  0.00     0.120 C 
HETATM   16  C   MOL     1     -45.921   1.660  19.427  1.00  0.00     0.026 C 
ENDBRANCH  12  15
ENDBRANCH  10  12
ENDBRANCH   1  10
TORSDOF 9
ENDMDL
MODEL 7
REMARK VINA RESULT:      -3.4      1.251      6.644
REMARK  9 active torsions:
REMARK  status: ('A' for Active; 'I' for Inactive)
REMARK    1  A    between atoms: S_1  and  S_2 
REMARK    2  A    between atoms: S_1  and  C_15 
REMARK    3  A    between atoms: S_2  and  C_16 
REMARK    4  A    between atoms: N_5  and  C_7 
REMARK    5  A    between atoms: N_5  and  C_8 
REMARK    6  A    between atoms: N_5  and  C_15 
REMARK    7  A    between atoms: N_6  and  C_9 
REMARK    8  A    between atoms: N_6  and  C_10 
REMARK    9  A    between atoms: N_6  and  C_16 
ROOT
HETATM    1  S   MOL     1     -47.251  -2.696  16.334  1.00  0.00    -0.020 SA
ENDROOT
BRANCH   1   2
HETATM    2  S   MOL     1     -47.054  -0.644  16.263  1.00  0.00    -0.020 SA
BRANCH   2   3
HETATM    3  C   MOL     1     -46.603  -0.273  17.941  1.00  0.00     0.147 C 
HETATM    4  S   MOL     1     -47.761  -0.509  19.150  1.00  0.00    -0.052 SA
BRANCH   3   5
HETATM    5  N   MOL     1     -45.282   0.175  18.151  1.00  0.00    -0.367 N 
BRANCH   5   6
HETATM    6  C   MOL     1     -44.129  -0.464  17.511  1.00  0.00     0.120 C 
HETATM    7  C   MOL     1     -43.872  -1.843  18.081  1.00  0.00     0.026 C 
ENDBRANCH   5   6
BRANCH   5   8
HETATM    8  C   MOL     1     -44.922   1.319  18.995  1.00  0.00     0.120 C 
HETATM    9  C   MOL     1     -43.490   1.751  18.761  1.00  0.00     0.026 C 
ENDBRANCH   5   8
ENDBRANCH   3   5
ENDBRANCH   2   3
ENDBRANCH   1   2
BRANCH   1  10
HETATM   10  C   MOL     1     -48.789  -2.935  15.476  1.00  0.00     0.147 C 
HETATM   11  S   MOL     1     -49.211  -1.829  14.268  1.00  0.00    -0.052 SA
BRANCH  10  12
HETATM   12  N   MOL     1     -49.548  -4.061  15.854  1.00  0.00    -0.367 N 
BRANCH  12  13
HETATM   13  C   MOL     1     -50.469  -4.772  14.961  1.00  0.00     0.120 C 
HETATM   14  C   MOL     1     -51.861  -4.856  15.553  1.00  0.00     0.026 C 
ENDBRANCH  12  13
BRANCH  12  15
HETATM   15  C   MOL     1     -49.498  -4.621  17.207  1.00  0.00     0.120 C 
HETATM   16  C   MOL     1     -48.808  -5.969  17.225  1.00  0.00     0.026 C 
ENDBRANCH  12  15
ENDBRANCH  10  12
ENDBRANCH   1  10
TORSDOF 9
ENDMDL
MODEL 8
REMARK VINA RESULT:      -3.4      2.639      6.552
REMARK  9 active torsions:
REMARK  status: ('A' for Active; 'I' for Inactive)
REMARK    1  A    between atoms: S_1  and  S_2 
REMARK    2  A    between atoms: S_1  and  C_15 
REMARK    3  A    between atoms: S_2  and  C_16 
REMARK    4  A    between atoms: N_5  and  C_7 
REMARK    5  A    between atoms: N_5  and  C_8 
REMARK    6  A    between atoms: N_5  and  C_15 
REMARK    7  A    between atoms: N_6  and  C_9 
REMARK    8  A    between atoms: N_6  and  C_10 
REMARK    9  A    between atoms: N_6  and  C_16 
ROOT
HETATM    1  S   MOL     1     -47.286   0.880  18.530  1.00  0.00    -0.020 SA
ENDROOT
BRANCH   1   2
HETATM    2  S   MOL     1     -46.500  -0.076  20.179  1.00  0.00    -0.020 SA
BRANCH   2   3
HETATM    3  C   MOL     1     -45.131   0.982  20.585  1.00  0.00     0.147 C 
HETATM    4  S   MOL     1     -45.341   2.123  21.815  1.00  0.00    -0.052 SA
BRANCH   3   5
HETATM    5  N   MOL     1     -43.941   0.773  19.858  1.00  0.00    -0.367 N 
BRANCH   5   6
HETATM    6  C   MOL     1     -43.526   1.657  18.765  1.00  0.00     0.120 C 
HETATM    7  C   MOL     1     -42.275   2.432  19.122  1.00  0.00     0.026 C 
ENDBRANCH   5   6
BRANCH   5   8
HETATM    8  C   MOL     1     -42.993  -0.315  20.121  1.00  0.00     0.120 C 
HETATM    9  C   MOL     1     -43.064  -1.382  19.049  1.00  0.00     0.026 C 
ENDBRANCH   5   8
ENDBRANCH   3   5
ENDBRANCH   2   3
ENDBRANCH   1   2
BRANCH   1  10
HETATM   10  C   MOL     1     -47.916  -0.490  17.591  1.00  0.00     0.147 C 
HETATM   11  S   MOL     1     -49.322  -1.254  18.137  1.00  0.00    -0.052 SA
BRANCH  10  12
HETATM   12  N   MOL     1     -47.200  -0.832  16.426  1.00  0.00    -0.367 N 
BRANCH  12  13
HETATM   13  C   MOL     1     -45.845  -0.359  16.122  1.00  0.00     0.120 C 
HETATM   14  C   MOL     1     -44.918  -1.510  15.786  1.00  0.00     0.026 C 
ENDBRANCH  12  13
BRANCH  12  15
HETATM   15  C   MOL     1     -47.764  -1.694  15.385  1.00  0.00     0.120 C 
HETATM   16  C   MOL     1     -48.464  -0.885  14.313  1.00  0.00     0.026 C 
ENDBRANCH  12  15
ENDBRANCH  10  12
ENDBRANCH   1  10
TORSDOF 9
ENDMDL
MODEL 9
REMARK VINA RESULT:      -3.4      1.391      2.102
REMARK  9 active torsions:
REMARK  status: ('A' for Active; 'I' for Inactive)
REMARK    1  A    between atoms: S_1  and  S_2 
REMARK    2  A    between atoms: S_1  and  C_15 
REMARK    3  A    between atoms: S_2  and  C_16 
REMARK    4  A    between atoms: N_5  and  C_7 
REMARK    5  A    between atoms: N_5  and  C_8 
REMARK    6  A    between atoms: N_5  and  C_15 
REMARK    7  A    between atoms: N_6  and  C_9 
REMARK    8  A    between atoms: N_6  and  C_10 
REMARK    9  A    between atoms: N_6  and  C_16 
ROOT
HETATM    1  S   MOL     1     -46.805  -0.143  17.335  1.00  0.00    -0.020 SA
ENDROOT
BRANCH   1   2
HETATM    2  S   MOL     1     -47.577  -0.864  15.564  1.00  0.00    -0.020 SA
BRANCH   2   3
HETATM    3  C   MOL     1     -48.510  -2.267  16.128  1.00  0.00     0.147 C 
HETATM    4  S   MOL     1     -47.674  -3.537  16.868  1.00  0.00    -0.052 SA
BRANCH   3   5
HETATM    5  N   MOL     1     -49.906  -2.208  15.938  1.00  0.00    -0.367 N 
BRANCH   5   6
HETATM    6  C   MOL     1     -50.510  -2.090  14.609  1.00  0.00     0.120 C 
HETATM    7  C   MOL     1     -51.405  -0.873  14.511  1.00  0.00     0.026 C 
ENDBRANCH   5   6
BRANCH   5   8
HETATM    8  C   MOL     1     -50.890  -2.279  17.023  1.00  0.00     0.120 C 
HETATM    9  C   MOL     1     -50.562  -1.303  18.134  1.00  0.00     0.026 C 
ENDBRANCH   5   8
ENDBRANCH   3   5
ENDBRANCH   2   3
ENDBRANCH   1   2
BRANCH   1  10
HETATM   10  C   MOL     1     -45.066  -0.429  17.108  1.00  0.00     0.147 C 
HETATM   11  S   MOL     1     -44.559  -1.172  15.675  1.00  0.00    -0.052 SA
BRANCH  10  12
HETATM   12  N   MOL     1     -44.218   0.013  18.143  1.00  0.00    -0.367 N 
BRANCH  12  13
HETATM   13  C   MOL     1     -43.173  -0.810  18.761  1.00  0.00     0.120 C 
HETATM   14  C   MOL     1     -43.603  -1.325  20.119  1.00  0.00     0.026 C 
ENDBRANCH  12  13
BRANCH  12  15
HETATM   15  C   MOL     1     -44.320   1.356  18.719  1.00  0.00     0.120 C 
HETATM   16  C   MOL     1     -42.968   2.036  18.786  1.00  0.00     0.026 C 
ENDBRANCH  12  15
ENDBRANCH  10  12
ENDBRANCH   1  10
TORSDOF 9
ENDMDL
MODEL 10
REMARK VINA RESULT:      -3.4      1.700      6.996
REMARK  9 active torsions:
REMARK  status: ('A' for Active; 'I' for Inactive)
REMARK    1  A    between atoms: S_1  and  S_2 
REMARK    2  A    between atoms: S_1  and  C_15 
REMARK    3  A    between atoms: S_2  and  C_16 
REMARK    4  A    between atoms: N_5  and  C_7 
REMARK    5  A    between atoms: N_5  and  C_8 
REMARK    6  A    between atoms: N_5  and  C_15 
REMARK    7  A    between atoms: N_6  and  C_9 
REMARK    8  A    between atoms: N_6  and  C_10 
REMARK    9  A    between atoms: N_6  and  C_16 
ROOT
HETATM    1  S   MOL     1     -47.456  -0.275  17.253  1.00  0.00    -0.020 SA
ENDROOT
BRANCH   1   2
HETATM    2  S   MOL     1     -45.402  -0.230  17.082  1.00  0.00    -0.020 SA
BRANCH   2   3
HETATM    3  C   MOL     1     -44.946   0.709  18.521  1.00  0.00     0.147 C 
HETATM    4  S   MOL     1     -46.177   1.443  19.418  1.00  0.00    -0.052 SA
BRANCH   3   5
HETATM    5  N   MOL     1     -43.571   0.755  18.829  1.00  0.00    -0.367 N 
BRANCH   5   6
HETATM    6  C   MOL     1     -42.812   2.008  18.837  1.00  0.00     0.120 C 
HETATM    7  C   MOL     1     -42.284   2.329  20.219  1.00  0.00     0.026 C 
ENDBRANCH   5   6
BRANCH   5   8
HETATM    8  C   MOL     1     -42.767  -0.417  19.191  1.00  0.00     0.120 C 
HETATM    9  C   MOL     1     -43.492  -1.301  20.185  1.00  0.00     0.026 C 
ENDBRANCH   5   8
ENDBRANCH   3   5
ENDBRANCH   2   3
ENDBRANCH   1   2
BRANCH   1  10
HETATM   10  C   MOL     1     -47.855  -1.761  16.365  1.00  0.00     0.147 C 
HETATM   11  S   MOL     1     -47.037  -3.183  16.778  1.00  0.00    -0.052 SA
BRANCH  10  12
HETATM   12  N   MOL     1     -48.857  -1.652  15.379  1.00  0.00    -0.367 N 
BRANCH  12  13
HETATM   13  C   MOL     1     -50.161  -2.319  15.452  1.00  0.00     0.120 C 
HETATM   14  C   MOL     1     -50.152  -3.637  14.706  1.00  0.00     0.026 C 
ENDBRANCH  12  13
BRANCH  12  15
HETATM   15  C   MOL     1     -48.673  -0.861  14.160  1.00  0.00     0.120 C 
HETATM   16  C   MOL     1     -49.923  -0.079  13.811  1.00  0.00     0.026 C 
ENDBRANCH  12  15
ENDBRANCH  10  12
ENDBRANCH   1  10
TORSDOF 9
ENDMDL
