MODEL 1
REMARK VINA RESULT:      -6.1      0.000      0.000
REMARK  20 active torsions:
REMARK  status: ('A' for Active; 'I' for Inactive)
REMARK    1  A    between atoms: C_3  and  C_7 
REMARK    2  A    between atoms: C_7  and  C_8 
REMARK    3  A    between atoms: C_8  and  N_9 
REMARK    4  A    between atoms: C_8  and  C_10 
REMARK    5  A    between atoms: C_10  and  O_11 
REMARK    6  A    between atoms: C_10  and  C_12 
REMARK    7  A    between atoms: C_12  and  C_13 
REMARK    8  A    between atoms: C_13  and  C_14 
REMARK    9  A    between atoms: C_13  and  N_21 
REMARK   10  A    between atoms: C_14  and  C_15 
REMARK   11  A    between atoms: N_21  and  P_22 
REMARK   12  A    between atoms: P_22  and  O_23 
REMARK   13  A    between atoms: P_22  and  O_24 
REMARK   14  A    between atoms: O_23  and  C_26 
REMARK   15  A    between atoms: O_24  and  C_27 
REMARK   16  A    between atoms: C_26  and  C_33 
REMARK   17  A    between atoms: C_35  and  C_40 
REMARK   18  A    between atoms: C_36  and  O_39 
REMARK   19  A    between atoms: C_37  and  O_38 
REMARK   20  A    between atoms: C_50  and  N_51 
ROOT
HETATM    1  C   MOL     1     -43.128   0.672  18.894  1.00 -0.25     0.001 A 
HETATM    2  C   MOL     1     -43.862   0.458  17.750  1.00 -0.30     0.007 A 
HETATM    3  C   MOL     1     -44.176  -0.823  17.353  1.00 -0.25    -0.056 A 
HETATM    4  C   MOL     1     -43.749  -1.891  18.113  1.00 -0.33     0.007 A 
HETATM    5  C   MOL     1     -43.014  -1.680  19.258  1.00 -0.34     0.001 A 
HETATM    6  C   MOL     1     -42.704  -0.397  19.648  1.00 -0.27     0.000 A 
ENDROOT
BRANCH   3   7
HETATM    7  C   MOL     1     -44.990  -1.058  16.089  1.00 -0.43     0.074 C 
BRANCH   7   8
HETATM    8  C   MOL     1     -45.960  -2.259  16.148  1.00 -0.43     0.216 C 
BRANCH   8   9
HETATM    9  N   MOL     1     -46.575  -2.462  14.789  1.00  0.05    -0.072 N 
HETATM   10  H   MOL     1     -47.038  -1.729  14.515  1.00 -0.64     0.274 HD
HETATM   11  H   MOL     1     -45.942  -2.628  14.156  1.00 -0.76     0.274 HD
HETATM   12  H   MOL     1     -47.147  -3.167  14.769  1.00 -0.15     0.274 HD
ENDBRANCH   8   9
BRANCH   8  13
HETATM   13  C   MOL     1     -47.043  -2.012  17.224  1.00 -0.29     0.150 C 
BRANCH  13  14
HETATM   14  O   MOL     1     -47.856  -3.188  17.382  1.00  0.06    -0.393 OA
HETATM   15  H   MOL     1     -47.358  -4.016  17.103  1.00 -0.27     0.210 HD
ENDBRANCH  13  14
BRANCH  13  16
HETATM   16  C   MOL     1     -47.946  -0.818  16.847  1.00 -0.14     0.054 C 
BRANCH  16  17
HETATM   17  C   MOL     1     -48.451  -0.067  18.098  1.00 -0.12     0.073 C 
BRANCH  17  18
HETATM   18  C   MOL     1     -47.441   1.039  18.478  1.00 -0.13     0.058 C 
BRANCH  18  19
HETATM   19  C   MOL     1     -46.707   0.835  19.794  1.00 -0.16    -0.057 A 
HETATM   20  C   MOL     1     -46.709  -0.400  20.406  1.00 -0.21     0.007 A 
HETATM   21  C   MOL     1     -46.048  -0.586  21.600  1.00 -0.25     0.001 A 
HETATM   22  C   MOL     1     -45.383   0.465  22.188  1.00 -0.37     0.000 A 
HETATM   23  C   MOL     1     -45.378   1.701  21.581  1.00 -0.40     0.001 A 
HETATM   24  C   MOL     1     -46.038   1.884  20.387  1.00 -0.21     0.007 A 
ENDBRANCH  18  19
ENDBRANCH  17  18
BRANCH  17  25
HETATM   25  N   MOL     1     -49.759   0.541  17.816  1.00  0.15    -0.221 NA
HETATM   26  H   MOL     1     -49.921   0.576  16.801  1.00  0.32     0.134 HD
BRANCH  25  27
HETATM   27  P   MOL     1     -50.913  -0.131  18.517  1.00  0.09     0.413 P 
HETATM   28  O   MOL     1     -50.534  -1.502  19.010  1.00  0.07    -0.239 OA
BRANCH  27  29
HETATM   29  O   MOL     1     -52.203  -0.223  17.562  1.00  0.12    -0.299 OA
BRANCH  29  30
HETATM   30  C   MOL     1     -53.396   0.481  17.939  1.00 -0.20     0.214 C 
BRANCH  30  31
HETATM   31  C   MOL     1     -53.798   1.457  16.821  1.00 -0.04     0.180 C 
HETATM   32  O   MOL     1     -53.496   0.919  15.522  1.00  0.26    -0.347 OA
HETATM   33  C   MOL     1     -53.121   1.977  14.619  1.00 -0.04     0.222 C 
HETATM   34  C   MOL     1     -53.154   3.281  15.450  1.00 -0.10     0.205 C 
HETATM   35  C   MOL     1     -54.116   2.037  13.540  1.00 -0.21     0.107 C 
HETATM   36  C   MOL     1     -53.061   2.801  16.904  1.00 -0.06     0.182 C 
HETATM   37  N   MOL     1     -54.887   2.084  12.706  1.00  0.07    -0.193 NA
BRANCH  33  38
HETATM   38  C   MOL     1     -51.758   1.570  14.070  1.00 -0.19     0.088 A 
HETATM   39  N   MOL     1     -51.121   2.333  13.149  1.00 -0.03    -0.229 N 
HETATM   40  C   MOL     1     -49.957   1.680  12.888  1.00 -0.22     0.104 A 
HETATM   41  N   MOL     1     -51.429   3.504  12.518  1.00  0.23    -0.160 NA
HETATM   42  C   MOL     1     -49.858   0.540  13.619  1.00 -0.37     0.038 A 
HETATM   43  C   MOL     1     -49.073   2.262  11.943  1.00 -0.44     0.151 A 
HETATM   44  C   MOL     1     -51.029   0.476  14.379  1.00 -0.17     0.034 A 
HETATM   45  N   MOL     1     -49.361   3.411  11.316  1.00 -0.19    -0.221 NA
HETATM   46  C   MOL     1     -50.563   3.979  11.654  1.00 -0.33     0.258 A 
BRANCH  43  47
HETATM   47  N   MOL     1     -47.876   1.662  11.632  1.00 -0.25    -0.382 N 
HETATM   48  H   MOL     1     -47.866   0.830  11.343  1.00 -0.27     0.157 HD
HETATM   49  H   MOL     1     -47.119   2.103  11.720  1.00 -0.19     0.157 HD
ENDBRANCH  43  47
ENDBRANCH  33  38
BRANCH  34  50
HETATM   50  O   MOL     1     -52.096   4.196  15.120  1.00  0.41    -0.388 OA
HETATM   51  H   MOL     1     -51.328   3.723  14.676  1.00 -0.42     0.210 HD
ENDBRANCH  34  50
BRANCH  36  52
HETATM   52  O   MOL     1     -51.682   2.632  17.268  1.00  0.07    -0.390 OA
HETATM   53  H   MOL     1     -51.336   1.731  16.984  1.00 -0.09     0.210 HD
ENDBRANCH  36  52
ENDBRANCH  30  31
ENDBRANCH  29  30
ENDBRANCH  27  29
BRANCH  27  54
HETATM   54  O   MOL     1     -51.431   0.786  19.739  1.00  0.13    -0.260 OA
BRANCH  54  55
HETATM   55  C   MOL     1     -50.571   1.413  20.596  1.00 -0.29     0.080 A 
HETATM   56  C   MOL     1     -50.186   2.729  20.411  1.00 -0.28     0.037 A 
HETATM   57  C   MOL     1     -49.322   3.332  21.293  1.00 -0.40     0.003 A 
HETATM   58  C   MOL     1     -48.833   2.628  22.370  1.00 -0.35     0.000 A 
HETATM   59  C   MOL     1     -49.210   1.319  22.562  1.00 -0.47     0.003 A 
HETATM   60  C   MOL     1     -50.072   0.714  21.679  1.00 -0.37     0.037 A 
ENDBRANCH  54  55
ENDBRANCH  27  54
ENDBRANCH  25  27
ENDBRANCH  17  25
ENDBRANCH  16  17
ENDBRANCH  13  16
ENDBRANCH   8  13
ENDBRANCH   7   8
ENDBRANCH   3   7
TORSDOF 20
ENDMDL
MODEL 2
REMARK VINA RESULT:      -5.9      3.544      5.652
REMARK  20 active torsions:
REMARK  status: ('A' for Active; 'I' for Inactive)
REMARK    1  A    between atoms: C_3  and  C_7 
REMARK    2  A    between atoms: C_7  and  C_8 
REMARK    3  A    between atoms: C_8  and  N_9 
REMARK    4  A    between atoms: C_8  and  C_10 
REMARK    5  A    between atoms: C_10  and  O_11 
REMARK    6  A    between atoms: C_10  and  C_12 
REMARK    7  A    between atoms: C_12  and  C_13 
REMARK    8  A    between atoms: C_13  and  C_14 
REMARK    9  A    between atoms: C_13  and  N_21 
REMARK   10  A    between atoms: C_14  and  C_15 
REMARK   11  A    between atoms: N_21  and  P_22 
REMARK   12  A    between atoms: P_22  and  O_23 
REMARK   13  A    between atoms: P_22  and  O_24 
REMARK   14  A    between atoms: O_23  and  C_26 
REMARK   15  A    between atoms: O_24  and  C_27 
REMARK   16  A    between atoms: C_26  and  C_33 
REMARK   17  A    between atoms: C_35  and  C_40 
REMARK   18  A    between atoms: C_36  and  O_39 
REMARK   19  A    between atoms: C_37  and  O_38 
REMARK   20  A    between atoms: C_50  and  N_51 
ROOT
HETATM    1  C   MOL     1     -43.233   1.273  19.367  1.00 -0.25     0.001 A 
HETATM    2  C   MOL     1     -44.125   1.102  18.333  1.00 -0.30     0.007 A 
HETATM    3  C   MOL     1     -44.303  -0.141  17.766  1.00 -0.25    -0.056 A 
HETATM    4  C   MOL     1     -43.580  -1.214  18.244  1.00 -0.33     0.007 A 
HETATM    5  C   MOL     1     -42.688  -1.044  19.278  1.00 -0.34     0.001 A 
HETATM    6  C   MOL     1     -42.514   0.200  19.839  1.00 -0.27     0.000 A 
ENDROOT
BRANCH   3   7
HETATM    7  C   MOL     1     -45.291  -0.329  16.623  1.00 -0.43     0.074 C 
BRANCH   7   8
HETATM    8  C   MOL     1     -45.289  -1.734  15.981  1.00 -0.43     0.216 C 
BRANCH   8   9
HETATM    9  N   MOL     1     -44.424  -1.709  14.749  1.00  0.05    -0.072 N 
HETATM   10  H   MOL     1     -43.557  -1.521  14.948  1.00 -0.64     0.274 HD
HETATM   11  H   MOL     1     -44.428  -2.512  14.319  1.00 -0.76     0.274 HD
HETATM   12  H   MOL     1     -44.703  -1.094  14.142  1.00 -0.15     0.274 HD
ENDBRANCH   8   9
BRANCH   8  13
HETATM   13  C   MOL     1     -46.735  -2.164  15.643  1.00 -0.29     0.150 C 
BRANCH  13  14
HETATM   14  O   MOL     1     -46.766  -2.829  14.367  1.00  0.06    -0.393 OA
HETATM   15  H   MOL     1     -47.604  -3.373  14.260  1.00 -0.27     0.210 HD
ENDBRANCH  13  14
BRANCH  13  16
HETATM   16  C   MOL     1     -47.687  -0.948  15.604  1.00 -0.14     0.054 C 
BRANCH  16  17
HETATM   17  C   MOL     1     -49.159  -1.368  15.810  1.00 -0.12     0.073 C 
BRANCH  17  18
HETATM   18  C   MOL     1     -49.306  -2.070  17.180  1.00 -0.13     0.058 C 
BRANCH  18  19
HETATM   19  C   MOL     1     -49.798  -3.508  17.130  1.00 -0.16    -0.057 A 
HETATM   20  C   MOL     1     -50.004  -4.131  15.919  1.00 -0.21     0.007 A 
HETATM   21  C   MOL     1     -50.453  -5.432  15.872  1.00 -0.25     0.001 A 
HETATM   22  C   MOL     1     -50.699  -6.116  17.040  1.00 -0.37     0.000 A 
HETATM   23  C   MOL     1     -50.495  -5.499  18.254  1.00 -0.40     0.001 A 
HETATM   24  C   MOL     1     -50.045  -4.198  18.297  1.00 -0.21     0.007 A 
ENDBRANCH  18  19
ENDBRANCH  17  18
BRANCH  17  25
HETATM   25  N   MOL     1     -50.022  -0.180  15.774  1.00  0.15    -0.221 NA
HETATM   26  H   MOL     1     -49.449   0.674  15.774  1.00  0.32     0.134 HD
BRANCH  25  27
HETATM   27  P   MOL     1     -51.001  -0.166  14.627  1.00  0.09     0.413 P 
HETATM   28  O   MOL     1     -50.663  -1.216  13.602  1.00  0.07    -0.239 OA
BRANCH  27  29
HETATM   29  O   MOL     1     -51.067   1.283  13.932  1.00  0.12    -0.299 OA
BRANCH  29  30
HETATM   30  C   MOL     1     -52.234   2.095  14.132  1.00 -0.20     0.214 C 
BRANCH  30  31
HETATM   31  C   MOL     1     -51.983   3.508  13.581  1.00 -0.04     0.180 C 
HETATM   32  O   MOL     1     -53.210   4.137  13.173  1.00  0.26    -0.347 OA
HETATM   33  C   MOL     1     -52.979   4.991  12.037  1.00 -0.04     0.222 C 
HETATM   34  C   MOL     1     -51.480   4.843  11.686  1.00 -0.10     0.205 C 
HETATM   35  C   MOL     1     -53.272   6.375  12.432  1.00 -0.21     0.107 C 
HETATM   36  C   MOL     1     -51.072   3.519  12.346  1.00 -0.06     0.182 C 
HETATM   37  N   MOL     1     -53.499   7.446  12.739  1.00  0.07    -0.193 NA
BRANCH  33  38
HETATM   38  C   MOL     1     -53.963   4.517  10.972  1.00 -0.19     0.088 A 
HETATM   39  N   MOL     1     -54.147   5.221   9.829  1.00 -0.03    -0.229 N 
HETATM   40  C   MOL     1     -55.077   4.523   9.126  1.00 -0.22     0.104 A 
HETATM   41  N   MOL     1     -53.614   6.378   9.338  1.00  0.23    -0.160 NA
HETATM   42  C   MOL     1     -55.473   3.413   9.801  1.00 -0.37     0.038 A 
HETATM   43  C   MOL     1     -55.470   5.037   7.863  1.00 -0.44     0.151 A 
HETATM   44  C   MOL     1     -54.748   3.418  10.995  1.00 -0.17     0.034 A 
HETATM   45  N   MOL     1     -54.957   6.171   7.367  1.00 -0.19    -0.221 NA
HETATM   46  C   MOL     1     -54.029   6.792   8.164  1.00 -0.33     0.258 A 
BRANCH  43  47
HETATM   47  N   MOL     1     -56.403   4.383   7.094  1.00 -0.25    -0.382 N 
HETATM   48  H   MOL     1     -56.150   3.961   6.364  1.00 -0.27     0.157 HD
HETATM   49  H   MOL     1     -57.253   4.382   7.327  1.00 -0.19     0.157 HD
ENDBRANCH  43  47
ENDBRANCH  33  38
BRANCH  34  50
HETATM   50  O   MOL     1     -51.220   4.838  10.274  1.00  0.41    -0.388 OA
HETATM   51  H   MOL     1     -51.662   4.055   9.823  1.00 -0.42     0.210 HD
ENDBRANCH  34  50
BRANCH  36  52
HETATM   52  O   MOL     1     -51.362   2.428  11.458  1.00  0.07    -0.390 OA
HETATM   53  H   MOL     1     -51.072   2.636  10.517  1.00 -0.09     0.210 HD
ENDBRANCH  36  52
ENDBRANCH  30  31
ENDBRANCH  29  30
ENDBRANCH  27  29
BRANCH  27  54
HETATM   54  O   MOL     1     -52.504  -0.374  15.175  1.00  0.13    -0.260 OA
BRANCH  54  55
HETATM   55  C   MOL     1     -52.929  -1.561  15.702  1.00 -0.29     0.080 A 
HETATM   56  C   MOL     1     -53.285  -2.630  14.900  1.00 -0.28     0.037 A 
HETATM   57  C   MOL     1     -53.706  -3.812  15.462  1.00 -0.40     0.003 A 
HETATM   58  C   MOL     1     -53.773  -3.939  16.831  1.00 -0.35     0.000 A 
HETATM   59  C   MOL     1     -53.420  -2.881  17.637  1.00 -0.47     0.003 A 
HETATM   60  C   MOL     1     -53.003  -1.697  17.075  1.00 -0.37     0.037 A 
ENDBRANCH  54  55
ENDBRANCH  27  54
ENDBRANCH  25  27
ENDBRANCH  17  25
ENDBRANCH  16  17
ENDBRANCH  13  16
ENDBRANCH   8  13
ENDBRANCH   7   8
ENDBRANCH   3   7
TORSDOF 20
ENDMDL
MODEL 3
REMARK VINA RESULT:      -5.7      2.346      4.454
REMARK  20 active torsions:
REMARK  status: ('A' for Active; 'I' for Inactive)
REMARK    1  A    between atoms: C_3  and  C_7 
REMARK    2  A    between atoms: C_7  and  C_8 
REMARK    3  A    between atoms: C_8  and  N_9 
REMARK    4  A    between atoms: C_8  and  C_10 
REMARK    5  A    between atoms: C_10  and  O_11 
REMARK    6  A    between atoms: C_10  and  C_12 
REMARK    7  A    between atoms: C_12  and  C_13 
REMARK    8  A    between atoms: C_13  and  C_14 
REMARK    9  A    between atoms: C_13  and  N_21 
REMARK   10  A    between atoms: C_14  and  C_15 
REMARK   11  A    between atoms: N_21  and  P_22 
REMARK   12  A    between atoms: P_22  and  O_23 
REMARK   13  A    between atoms: P_22  and  O_24 
REMARK   14  A    between atoms: O_23  and  C_26 
REMARK   15  A    between atoms: O_24  and  C_27 
REMARK   16  A    between atoms: C_26  and  C_33 
REMARK   17  A    between atoms: C_35  and  C_40 
REMARK   18  A    between atoms: C_36  and  O_39 
REMARK   19  A    between atoms: C_37  and  O_38 
REMARK   20  A    between atoms: C_50  and  N_51 
ROOT
HETATM    1  C   MOL     1     -52.681  -5.253  15.514  1.00 -0.25     0.001 A 
HETATM    2  C   MOL     1     -51.351  -4.899  15.523  1.00 -0.30     0.007 A 
HETATM    3  C   MOL     1     -50.971  -3.609  15.218  1.00 -0.25    -0.056 A 
HETATM    4  C   MOL     1     -51.936  -2.676  14.903  1.00 -0.33     0.007 A 
HETATM    5  C   MOL     1     -53.267  -3.029  14.893  1.00 -0.34     0.001 A 
HETATM    6  C   MOL     1     -53.639  -4.318  15.198  1.00 -0.27     0.000 A 
ENDROOT
BRANCH   3   7
HETATM    7  C   MOL     1     -49.501  -3.219  15.232  1.00 -0.43     0.074 C 
BRANCH   7   8
HETATM    8  C   MOL     1     -49.094  -2.163  14.180  1.00 -0.43     0.216 C 
BRANCH   8   9
HETATM    9  N   MOL     1     -48.358  -2.845  13.058  1.00  0.05    -0.072 N 
HETATM   10  H   MOL     1     -48.643  -3.699  12.936  1.00 -0.64     0.274 HD
HETATM   11  H   MOL     1     -48.477  -2.411  12.266  1.00 -0.76     0.274 HD
HETATM   12  H   MOL     1     -47.462  -2.875  13.200  1.00 -0.15     0.274 HD
ENDBRANCH   8   9
BRANCH   8  13
HETATM   13  C   MOL     1     -48.224  -1.067  14.839  1.00 -0.29     0.150 C 
BRANCH  13  14
HETATM   14  O   MOL     1     -47.587  -0.269  13.825  1.00  0.06    -0.393 OA
HETATM   15  H   MOL     1     -46.594  -0.217  13.973  1.00 -0.27     0.210 HD
ENDBRANCH  13  14
BRANCH  13  16
HETATM   16  C   MOL     1     -47.144  -1.684  15.753  1.00 -0.14     0.054 C 
BRANCH  16  17
HETATM   17  C   MOL     1     -47.028  -0.925  17.093  1.00 -0.12     0.073 C 
BRANCH  17  18
HETATM   18  C   MOL     1     -45.894   0.121  16.995  1.00 -0.13     0.058 C 
BRANCH  18  19
HETATM   19  C   MOL     1     -44.723  -0.090  17.943  1.00 -0.16    -0.057 A 
HETATM   20  C   MOL     1     -44.375  -1.361  18.345  1.00 -0.21     0.007 A 
HETATM   21  C   MOL     1     -43.317  -1.554  19.206  1.00 -0.25     0.001 A 
HETATM   22  C   MOL     1     -42.603  -0.474  19.670  1.00 -0.37     0.000 A 
HETATM   23  C   MOL     1     -42.947   0.799  19.271  1.00 -0.40     0.001 A 
HETATM   24  C   MOL     1     -44.004   0.988  18.410  1.00 -0.21     0.007 A 
ENDBRANCH  18  19
ENDBRANCH  17  18
BRANCH  17  25
HETATM   25  N   MOL     1     -48.296  -0.245  17.387  1.00  0.15    -0.221 NA
HETATM   26  H   MOL     1     -48.853  -0.145  16.528  1.00  0.32     0.134 HD
BRANCH  25  27
HETATM   27  P   MOL     1     -49.109  -0.902  18.475  1.00  0.09     0.413 P 
HETATM   28  O   MOL     1     -48.611  -2.292  18.769  1.00  0.07    -0.239 OA
BRANCH  27  29
HETATM   29  O   MOL     1     -50.671  -0.942  18.095  1.00  0.12    -0.299 OA
BRANCH  29  30
HETATM   30  C   MOL     1     -51.642  -0.787  19.139  1.00 -0.20     0.214 C 
BRANCH  30  31
HETATM   31  C   MOL     1     -52.765   0.152  18.668  1.00 -0.04     0.180 C 
HETATM   32  O   MOL     1     -53.040  -0.020  17.268  1.00  0.26    -0.347 OA
HETATM   33  C   MOL     1     -53.427   1.234  16.676  1.00 -0.04     0.222 C 
HETATM   34  C   MOL     1     -53.341   2.286  17.807  1.00 -0.10     0.205 C 
HETATM   35  C   MOL     1     -54.811   1.113  16.201  1.00 -0.21     0.107 C 
HETATM   36  C   MOL     1     -52.422   1.638  18.851  1.00 -0.06     0.182 C 
HETATM   37  N   MOL     1     -55.883   1.020  15.833  1.00  0.07    -0.193 NA
BRANCH  33  38
HETATM   38  C   MOL     1     -52.472   1.436  15.504  1.00 -0.19     0.088 A 
HETATM   39  N   MOL     1     -52.638   2.465  14.639  1.00 -0.03    -0.229 N 
HETATM   40  C   MOL     1     -51.629   2.338  13.736  1.00 -0.22     0.104 A 
HETATM   41  N   MOL     1     -53.547   3.479  14.542  1.00  0.23    -0.160 NA
HETATM   42  C   MOL     1     -50.849   1.263  14.018  1.00 -0.37     0.038 A 
HETATM   43  C   MOL     1     -51.552   3.299  12.695  1.00 -0.44     0.151 A 
HETATM   44  C   MOL     1     -51.404   0.683  15.163  1.00 -0.17     0.034 A 
HETATM   45  N   MOL     1     -52.437   4.300  12.586  1.00 -0.19    -0.221 NA
HETATM   46  C   MOL     1     -53.413   4.327  13.550  1.00 -0.33     0.258 A 
BRANCH  43  47
HETATM   47  N   MOL     1     -50.557   3.237  11.748  1.00 -0.25    -0.382 N 
HETATM   48  H   MOL     1     -50.756   3.337  10.897  1.00 -0.27     0.157 HD
HETATM   49  H   MOL     1     -49.721   3.099  11.989  1.00 -0.19     0.157 HD
ENDBRANCH  43  47
ENDBRANCH  33  38
BRANCH  34  50
HETATM   50  O   MOL     1     -52.838   3.558  17.369  1.00  0.41    -0.388 OA
HETATM   51  H   MOL     1     -52.521   3.517  16.415  1.00 -0.42     0.210 HD
ENDBRANCH  34  50
BRANCH  36  52
HETATM   52  O   MOL     1     -51.051   1.914  18.524  1.00  0.07    -0.390 OA
HETATM   53  H   MOL     1     -50.435   1.647  19.274  1.00 -0.09     0.210 HD
ENDBRANCH  36  52
ENDBRANCH  30  31
ENDBRANCH  29  30
ENDBRANCH  27  29
BRANCH  27  54
HETATM   54  O   MOL     1     -49.084   0.001  19.811  1.00  0.13    -0.260 OA
BRANCH  54  55
HETATM   55  C   MOL     1     -47.917   0.388  20.408  1.00 -0.29     0.080 A 
HETATM   56  C   MOL     1     -47.531   1.715  20.464  1.00 -0.28     0.037 A 
HETATM   57  C   MOL     1     -46.352   2.072  21.075  1.00 -0.40     0.003 A 
HETATM   58  C   MOL     1     -45.548   1.107  21.638  1.00 -0.35     0.000 A 
HETATM   59  C   MOL     1     -45.924  -0.216  21.586  1.00 -0.47     0.003 A 
HETATM   60  C   MOL     1     -47.101  -0.573  20.973  1.00 -0.37     0.037 A 
ENDBRANCH  54  55
ENDBRANCH  27  54
ENDBRANCH  25  27
ENDBRANCH  17  25
ENDBRANCH  16  17
ENDBRANCH  13  16
ENDBRANCH   8  13
ENDBRANCH   7   8
ENDBRANCH   3   7
TORSDOF 20
ENDMDL
MODEL 4
REMARK VINA RESULT:      -5.7      2.132      2.995
REMARK  20 active torsions:
REMARK  status: ('A' for Active; 'I' for Inactive)
REMARK    1  A    between atoms: C_3  and  C_7 
REMARK    2  A    between atoms: C_7  and  C_8 
REMARK    3  A    between atoms: C_8  and  N_9 
REMARK    4  A    between atoms: C_8  and  C_10 
REMARK    5  A    between atoms: C_10  and  O_11 
REMARK    6  A    between atoms: C_10  and  C_12 
REMARK    7  A    between atoms: C_12  and  C_13 
REMARK    8  A    between atoms: C_13  and  C_14 
REMARK    9  A    between atoms: C_13  and  N_21 
REMARK   10  A    between atoms: C_14  and  C_15 
REMARK   11  A    between atoms: N_21  and  P_22 
REMARK   12  A    between atoms: P_22  and  O_23 
REMARK   13  A    between atoms: P_22  and  O_24 
REMARK   14  A    between atoms: O_23  and  C_26 
REMARK   15  A    between atoms: O_24  and  C_27 
REMARK   16  A    between atoms: C_26  and  C_33 
REMARK   17  A    between atoms: C_35  and  C_40 
REMARK   18  A    between atoms: C_36  and  O_39 
REMARK   19  A    between atoms: C_37  and  O_38 
REMARK   20  A    between atoms: C_50  and  N_51 
ROOT
HETATM    1  C   MOL     1     -43.003  -1.334  19.447  1.00 -0.25     0.001 A 
HETATM    2  C   MOL     1     -43.775  -1.576  18.333  1.00 -0.30     0.007 A 
HETATM    3  C   MOL     1     -44.325  -0.528  17.627  1.00 -0.25    -0.056 A 
HETATM    4  C   MOL     1     -44.096   0.765  18.046  1.00 -0.33     0.007 A 
HETATM    5  C   MOL     1     -43.325   1.008  19.160  1.00 -0.34     0.001 A 
HETATM    6  C   MOL     1     -42.779  -0.042  19.861  1.00 -0.27     0.000 A 
ENDROOT
BRANCH   3   7
HETATM    7  C   MOL     1     -45.175  -0.797  16.393  1.00 -0.43     0.074 C 
BRANCH   7   8
HETATM    8  C   MOL     1     -45.623  -2.264  16.214  1.00 -0.43     0.216 C 
BRANCH   8   9
HETATM    9  N   MOL     1     -45.780  -2.555  14.746  1.00  0.05    -0.072 N 
HETATM   10  H   MOL     1     -46.638  -2.438  14.468  1.00 -0.64     0.274 HD
HETATM   11  H   MOL     1     -45.259  -2.006  14.238  1.00 -0.76     0.274 HD
HETATM   12  H   MOL     1     -45.539  -3.404  14.533  1.00 -0.15     0.274 HD
ENDBRANCH   8   9
BRANCH   8  13
HETATM   13  C   MOL     1     -46.943  -2.511  16.980  1.00 -0.29     0.150 C 
BRANCH  13  14
HETATM   14  O   MOL     1     -47.625  -3.652  16.430  1.00  0.06    -0.393 OA
HETATM   15  H   MOL     1     -48.306  -4.016  17.074  1.00 -0.27     0.210 HD
ENDBRANCH  13  14
BRANCH  13  16
HETATM   16  C   MOL     1     -47.873  -1.281  16.906  1.00 -0.14     0.054 C 
BRANCH  16  17
HETATM   17  C   MOL     1     -48.420  -0.894  18.298  1.00 -0.12     0.073 C 
BRANCH  17  18
HETATM   18  C   MOL     1     -47.971   0.543  18.647  1.00 -0.13     0.058 C 
BRANCH  18  19
HETATM   19  C   MOL     1     -47.129   0.679  19.906  1.00 -0.16    -0.057 A 
HETATM   20  C   MOL     1     -46.794   1.927  20.386  1.00 -0.21     0.007 A 
HETATM   21  C   MOL     1     -46.028   2.052  21.524  1.00 -0.25     0.001 A 
HETATM   22  C   MOL     1     -45.592   0.929  22.186  1.00 -0.37     0.000 A 
HETATM   23  C   MOL     1     -45.924  -0.321  21.711  1.00 -0.40     0.001 A 
HETATM   24  C   MOL     1     -46.690  -0.443  20.574  1.00 -0.21     0.007 A 
ENDBRANCH  18  19
ENDBRANCH  17  18
BRANCH  17  25
HETATM   25  N   MOL     1     -49.888  -0.959  18.288  1.00  0.15    -0.221 NA
HETATM   26  H   MOL     1     -50.231  -1.064  17.324  1.00  0.32     0.134 HD
BRANCH  25  27
HETATM   27  P   MOL     1     -50.463  -2.033  19.177  1.00  0.09     0.413 P 
HETATM   28  O   MOL     1     -49.391  -2.965  19.677  1.00  0.07    -0.239 OA
BRANCH  27  29
HETATM   29  O   MOL     1     -51.611  -2.866  18.421  1.00  0.12    -0.299 OA
BRANCH  29  30
HETATM   30  C   MOL     1     -52.950  -2.827  18.936  1.00 -0.20     0.214 C 
BRANCH  30  31
HETATM   31  C   MOL     1     -53.912  -2.326  17.847  1.00 -0.04     0.180 C 
HETATM   32  O   MOL     1     -53.347  -2.486  16.535  1.00  0.26    -0.347 OA
HETATM   33  C   MOL     1     -53.778  -1.417  15.672  1.00 -0.04     0.222 C 
HETATM   34  C   MOL     1     -54.655  -0.488  16.545  1.00 -0.10     0.205 C 
HETATM   35  C   MOL     1     -54.578  -1.995  14.584  1.00 -0.21     0.107 C 
HETATM   36  C   MOL     1     -54.248  -0.834  17.983  1.00 -0.06     0.182 C 
HETATM   37  N   MOL     1     -55.198  -2.442  13.743  1.00  0.07    -0.193 NA
BRANCH  33  38
HETATM   38  C   MOL     1     -52.495  -0.801  15.125  1.00 -0.19     0.088 A 
HETATM   39  N   MOL     1     -51.454  -1.580  14.744  1.00 -0.03    -0.229 N 
HETATM   40  C   MOL     1     -50.496  -0.713  14.320  1.00 -0.22     0.104 A 
HETATM   41  N   MOL     1     -51.243  -2.929  14.726  1.00  0.23    -0.160 NA
HETATM   42  C   MOL     1     -50.914   0.574  14.430  1.00 -0.37     0.038 A 
HETATM   43  C   MOL     1     -49.273  -1.261  13.854  1.00 -0.44     0.151 A 
HETATM   44  C   MOL     1     -52.208   0.508  14.954  1.00 -0.17     0.034 A 
HETATM   45  N   MOL     1     -49.050  -2.582  13.829  1.00 -0.19    -0.221 NA
HETATM   46  C   MOL     1     -50.085  -3.360  14.284  1.00 -0.33     0.258 A 
BRANCH  43  47
HETATM   47  N   MOL     1     -48.260  -0.446  13.405  1.00 -0.25    -0.382 N 
HETATM   48  H   MOL     1     -47.514  -0.803  13.102  1.00 -0.27     0.157 HD
HETATM   49  H   MOL     1     -48.352   0.429  13.419  1.00 -0.19     0.157 HD
ENDBRANCH  43  47
ENDBRANCH  33  38
BRANCH  34  50
HETATM   50  O   MOL     1     -54.472   0.907  16.259  1.00  0.41    -0.388 OA
HETATM   51  H   MOL     1     -54.511   1.086  15.269  1.00 -0.42     0.210 HD
ENDBRANCH  34  50
BRANCH  36  52
HETATM   52  O   MOL     1     -53.098  -0.059  18.358  1.00  0.07    -0.390 OA
HETATM   53  H   MOL     1     -53.224   0.368  19.261  1.00 -0.09     0.210 HD
ENDBRANCH  36  52
ENDBRANCH  30  31
ENDBRANCH  29  30
ENDBRANCH  27  29
BRANCH  27  54
HETATM   54  O   MOL     1     -51.254  -1.366  20.414  1.00  0.13    -0.260 OA
BRANCH  54  55
HETATM   55  C   MOL     1     -50.674  -0.442  21.238  1.00 -0.29     0.080 A 
HETATM   56  C   MOL     1     -50.808   0.917  21.019  1.00 -0.28     0.037 A 
HETATM   57  C   MOL     1     -50.215   1.821  21.869  1.00 -0.40     0.003 A 
HETATM   58  C   MOL     1     -49.483   1.376  22.946  1.00 -0.35     0.000 A 
HETATM   59  C   MOL     1     -49.344   0.026  23.171  1.00 -0.47     0.003 A 
HETATM   60  C   MOL     1     -49.934  -0.878  22.320  1.00 -0.37     0.037 A 
ENDBRANCH  54  55
ENDBRANCH  27  54
ENDBRANCH  25  27
ENDBRANCH  17  25
ENDBRANCH  16  17
ENDBRANCH  13  16
ENDBRANCH   8  13
ENDBRANCH   7   8
ENDBRANCH   3   7
TORSDOF 20
ENDMDL
MODEL 5
REMARK VINA RESULT:      -5.7      1.865      3.375
REMARK  20 active torsions:
REMARK  status: ('A' for Active; 'I' for Inactive)
REMARK    1  A    between atoms: C_3  and  C_7 
REMARK    2  A    between atoms: C_7  and  C_8 
REMARK    3  A    between atoms: C_8  and  N_9 
REMARK    4  A    between atoms: C_8  and  C_10 
REMARK    5  A    between atoms: C_10  and  O_11 
REMARK    6  A    between atoms: C_10  and  C_12 
REMARK    7  A    between atoms: C_12  and  C_13 
REMARK    8  A    between atoms: C_13  and  C_14 
REMARK    9  A    between atoms: C_13  and  N_21 
REMARK   10  A    between atoms: C_14  and  C_15 
REMARK   11  A    between atoms: N_21  and  P_22 
REMARK   12  A    between atoms: P_22  and  O_23 
REMARK   13  A    between atoms: P_22  and  O_24 
REMARK   14  A    between atoms: O_23  and  C_26 
REMARK   15  A    between atoms: O_24  and  C_27 
REMARK   16  A    between atoms: C_26  and  C_33 
REMARK   17  A    between atoms: C_35  and  C_40 
REMARK   18  A    between atoms: C_36  and  O_39 
REMARK   19  A    between atoms: C_37  and  O_38 
REMARK   20  A    between atoms: C_50  and  N_51 
ROOT
HETATM    1  C   MOL     1     -42.252   2.704  19.869  1.00 -0.25     0.001 A 
HETATM    2  C   MOL     1     -42.865   2.039  18.832  1.00 -0.30     0.007 A 
HETATM    3  C   MOL     1     -43.071   0.679  18.902  1.00 -0.25    -0.056 A 
HETATM    4  C   MOL     1     -42.657  -0.012  20.021  1.00 -0.33     0.007 A 
HETATM    5  C   MOL     1     -42.042   0.651  21.059  1.00 -0.34     0.001 A 
HETATM    6  C   MOL     1     -41.839   2.009  20.982  1.00 -0.27     0.000 A 
ENDROOT
BRANCH   3   7
HETATM    7  C   MOL     1     -43.753  -0.054  17.755  1.00 -0.43     0.074 C 
BRANCH   7   8
HETATM    8  C   MOL     1     -44.194  -1.500  18.073  1.00 -0.43     0.216 C 
BRANCH   8   9
HETATM    9  N   MOL     1     -43.269  -2.461  17.375  1.00  0.05    -0.072 N 
HETATM   10  H   MOL     1     -43.132  -2.228  16.507  1.00 -0.64     0.274 HD
HETATM   11  H   MOL     1     -42.451  -2.489  17.774  1.00 -0.76     0.274 HD
HETATM   12  H   MOL     1     -43.584  -3.312  17.381  1.00 -0.15     0.274 HD
ENDBRANCH   8   9
BRANCH   8  13
HETATM   13  C   MOL     1     -45.661  -1.714  17.635  1.00 -0.29     0.150 C 
BRANCH  13  14
HETATM   14  O   MOL     1     -45.703  -2.456  16.403  1.00  0.06    -0.393 OA
HETATM   15  H   MOL     1     -44.778  -2.698  16.091  1.00 -0.27     0.210 HD
ENDBRANCH  13  14
BRANCH  13  16
HETATM   16  C   MOL     1     -46.391  -0.367  17.441  1.00 -0.14     0.054 C 
BRANCH  16  17
HETATM   17  C   MOL     1     -47.195   0.032  18.699  1.00 -0.12     0.073 C 
BRANCH  17  18
HETATM   18  C   MOL     1     -46.718   1.416  19.196  1.00 -0.13     0.058 C 
BRANCH  18  19
HETATM   19  C   MOL     1     -46.135   1.444  20.600  1.00 -0.16    -0.057 A 
HETATM   20  C   MOL     1     -45.758   2.639  21.173  1.00 -0.21     0.007 A 
HETATM   21  C   MOL     1     -45.227   2.666  22.443  1.00 -0.25     0.001 A 
HETATM   22  C   MOL     1     -45.069   1.494  23.146  1.00 -0.37     0.000 A 
HETATM   23  C   MOL     1     -45.444   0.297  22.579  1.00 -0.40     0.001 A 
HETATM   24  C   MOL     1     -45.976   0.273  21.310  1.00 -0.21     0.007 A 
ENDBRANCH  18  19
ENDBRANCH  17  18
BRANCH  17  25
HETATM   25  N   MOL     1     -48.626   0.096  18.371  1.00  0.15    -0.221 NA
HETATM   26  H   MOL     1     -48.769  -0.099  17.371  1.00  0.32     0.134 HD
BRANCH  25  27
HETATM   27  P   MOL     1     -49.492  -0.801  19.218  1.00  0.09     0.413 P 
HETATM   28  O   MOL     1     -48.660  -1.712  20.082  1.00  0.07    -0.239 OA
BRANCH  27  29
HETATM   29  O   MOL     1     -50.500  -1.667  18.313  1.00  0.12    -0.299 OA
BRANCH  29  30
HETATM   30  C   MOL     1     -49.956  -2.607  17.375  1.00 -0.20     0.214 C 
BRANCH  30  31
HETATM   31  C   MOL     1     -50.218  -2.119  15.940  1.00 -0.04     0.180 C 
HETATM   32  O   MOL     1     -50.004  -0.702  15.821  1.00  0.26    -0.347 OA
HETATM   33  C   MOL     1     -50.918  -0.139  14.861  1.00 -0.04     0.222 C 
HETATM   34  C   MOL     1     -51.805  -1.310  14.375  1.00 -0.10     0.205 C 
HETATM   35  C   MOL     1     -50.136   0.403  13.742  1.00 -0.21     0.107 C 
HETATM   36  C   MOL     1     -51.659  -2.370  15.475  1.00 -0.06     0.182 C 
HETATM   37  N   MOL     1     -49.531   0.821  12.875  1.00  0.07    -0.193 NA
BRANCH  33  38
HETATM   38  C   MOL     1     -51.640   0.980  15.603  1.00 -0.19     0.088 A 
HETATM   39  N   MOL     1     -52.413   1.872  14.939  1.00 -0.03    -0.229 N 
HETATM   40  C   MOL     1     -52.889   2.714  15.895  1.00 -0.22     0.104 A 
HETATM   41  N   MOL     1     -52.745   2.039  13.625  1.00  0.23    -0.160 NA
HETATM   42  C   MOL     1     -52.430   2.369  17.126  1.00 -0.37     0.038 A 
HETATM   43  C   MOL     1     -53.744   3.767  15.480  1.00 -0.44     0.151 A 
HETATM   44  C   MOL     1     -51.621   1.247  16.927  1.00 -0.17     0.034 A 
HETATM   45  N   MOL     1     -54.079   3.944  14.194  1.00 -0.19    -0.221 NA
HETATM   46  C   MOL     1     -53.539   3.037  13.317  1.00 -0.33     0.258 A 
BRANCH  43  47
HETATM   47  N   MOL     1     -54.266   4.654  16.391  1.00 -0.25    -0.382 N 
HETATM   48  H   MOL     1     -55.037   5.046  16.227  1.00 -0.27     0.157 HD
HETATM   49  H   MOL     1     -53.835   4.832  17.138  1.00 -0.19     0.157 HD
ENDBRANCH  43  47
ENDBRANCH  33  38
BRANCH  34  50
HETATM   50  O   MOL     1     -53.178  -0.940  14.168  1.00  0.41    -0.388 OA
HETATM   51  H   MOL     1     -53.747  -1.190  14.959  1.00 -0.42     0.210 HD
ENDBRANCH  34  50
BRANCH  36  52
HETATM   52  O   MOL     1     -52.610  -2.115  16.520  1.00  0.07    -0.390 OA
HETATM   53  H   MOL     1     -53.214  -1.345  16.285  1.00 -0.09     0.210 HD
ENDBRANCH  36  52
ENDBRANCH  30  31
ENDBRANCH  29  30
ENDBRANCH  27  29
BRANCH  27  54
HETATM   54  O   MOL     1     -50.489   0.083  20.127  1.00  0.13    -0.260 OA
BRANCH  54  55
HETATM   55  C   MOL     1     -50.055   1.162  20.847  1.00 -0.29     0.080 A 
HETATM   56  C   MOL     1     -50.153   2.452  20.359  1.00 -0.28     0.037 A 
HETATM   57  C   MOL     1     -49.711   3.516  21.109  1.00 -0.40     0.003 A 
HETATM   58  C   MOL     1     -49.170   3.301  22.356  1.00 -0.35     0.000 A 
HETATM   59  C   MOL     1     -49.068   2.021  22.850  1.00 -0.47     0.003 A 
HETATM   60  C   MOL     1     -49.507   0.957  22.098  1.00 -0.37     0.037 A 
ENDBRANCH  54  55
ENDBRANCH  27  54
ENDBRANCH  25  27
ENDBRANCH  17  25
ENDBRANCH  16  17
ENDBRANCH  13  16
ENDBRANCH   8  13
ENDBRANCH   7   8
ENDBRANCH   3   7
TORSDOF 20
ENDMDL
MODEL 6
REMARK VINA RESULT:      -5.7      5.584      9.663
REMARK  20 active torsions:
REMARK  status: ('A' for Active; 'I' for Inactive)
REMARK    1  A    between atoms: C_3  and  C_7 
REMARK    2  A    between atoms: C_7  and  C_8 
REMARK    3  A    between atoms: C_8  and  N_9 
REMARK    4  A    between atoms: C_8  and  C_10 
REMARK    5  A    between atoms: C_10  and  O_11 
REMARK    6  A    between atoms: C_10  and  C_12 
REMARK    7  A    between atoms: C_12  and  C_13 
REMARK    8  A    between atoms: C_13  and  C_14 
REMARK    9  A    between atoms: C_13  and  N_21 
REMARK   10  A    between atoms: C_14  and  C_15 
REMARK   11  A    between atoms: N_21  and  P_22 
REMARK   12  A    between atoms: P_22  and  O_23 
REMARK   13  A    between atoms: P_22  and  O_24 
REMARK   14  A    between atoms: O_23  and  C_26 
REMARK   15  A    between atoms: O_24  and  C_27 
REMARK   16  A    between atoms: C_26  and  C_33 
REMARK   17  A    between atoms: C_35  and  C_40 
REMARK   18  A    between atoms: C_36  and  O_39 
REMARK   19  A    between atoms: C_37  and  O_38 
REMARK   20  A    between atoms: C_50  and  N_51 
ROOT
HETATM    1  C   MOL     1     -43.502  -1.263  19.977  1.00 -0.25     0.001 A 
HETATM    2  C   MOL     1     -44.151  -1.383  18.769  1.00 -0.30     0.007 A 
HETATM    3  C   MOL     1     -44.278  -0.293  17.935  1.00 -0.25    -0.056 A 
HETATM    4  C   MOL     1     -43.749   0.920  18.322  1.00 -0.33     0.007 A 
HETATM    5  C   MOL     1     -43.101   1.042  19.530  1.00 -0.34     0.001 A 
HETATM    6  C   MOL     1     -42.978  -0.050  20.358  1.00 -0.27     0.000 A 
ENDROOT
BRANCH   3   7
HETATM    7  C   MOL     1     -44.992  -0.428  16.598  1.00 -0.43     0.074 C 
BRANCH   7   8
HETATM    8  C   MOL     1     -44.921  -1.832  15.957  1.00 -0.43     0.216 C 
BRANCH   8   9
HETATM    9  N   MOL     1     -44.103  -1.755  14.696  1.00  0.05    -0.072 N 
HETATM   10  H   MOL     1     -43.237  -1.539  14.867  1.00 -0.64     0.274 HD
HETATM   11  H   MOL     1     -44.095  -2.550  14.252  1.00 -0.76     0.274 HD
HETATM   12  H   MOL     1     -44.426  -1.139  14.111  1.00 -0.15     0.274 HD
ENDBRANCH   8   9
BRANCH   8  13
HETATM   13  C   MOL     1     -46.347  -2.356  15.671  1.00 -0.29     0.150 C 
BRANCH  13  14
HETATM   14  O   MOL     1     -46.412  -2.905  14.343  1.00  0.06    -0.393 OA
HETATM   15  H   MOL     1     -45.833  -2.386  13.705  1.00 -0.27     0.210 HD
ENDBRANCH  13  14
BRANCH  13  16
HETATM   16  C   MOL     1     -47.396  -1.230  15.807  1.00 -0.14     0.054 C 
BRANCH  16  17
HETATM   17  C   MOL     1     -48.358  -1.486  16.988  1.00 -0.12     0.073 C 
BRANCH  17  18
HETATM   18  C   MOL     1     -48.781  -0.135  17.609  1.00 -0.13     0.058 C 
BRANCH  18  19
HETATM   19  C   MOL     1     -47.969   0.317  18.813  1.00 -0.16    -0.057 A 
HETATM   20  C   MOL     1     -47.501   1.611  18.890  1.00 -0.21     0.007 A 
HETATM   21  C   MOL     1     -46.763   2.021  19.978  1.00 -0.25     0.001 A 
HETATM   22  C   MOL     1     -46.488   1.136  20.994  1.00 -0.37     0.000 A 
HETATM   23  C   MOL     1     -46.953  -0.158  20.923  1.00 -0.40     0.001 A 
HETATM   24  C   MOL     1     -47.691  -0.565  19.835  1.00 -0.21     0.007 A 
ENDBRANCH  18  19
ENDBRANCH  17  18
BRANCH  17  25
HETATM   25  N   MOL     1     -49.550  -2.199  16.510  1.00  0.15    -0.221 NA
HETATM   26  H   MOL     1     -49.460  -2.407  15.507  1.00  0.32     0.134 HD
BRANCH  25  27
HETATM   27  P   MOL     1     -49.871  -3.451  17.287  1.00  0.09     0.413 P 
HETATM   28  O   MOL     1     -50.835  -3.169  18.410  1.00  0.07    -0.239 OA
BRANCH  27  29
HETATM   29  O   MOL     1     -48.538  -4.140  17.863  1.00  0.12    -0.299 OA
BRANCH  29  30
HETATM   30  C   MOL     1     -48.235  -5.490  17.480  1.00 -0.20     0.214 C 
BRANCH  30  31
HETATM   31  C   MOL     1     -48.664  -6.455  18.598  1.00 -0.04     0.180 C 
HETATM   32  O   MOL     1     -47.558  -6.793  19.452  1.00  0.26    -0.347 OA
HETATM   33  C   MOL     1     -47.688  -8.147  19.925  1.00 -0.04     0.222 C 
HETATM   34  C   MOL     1     -48.971  -8.709  19.267  1.00 -0.10     0.205 C 
HETATM   35  C   MOL     1     -47.840  -8.113  21.385  1.00 -0.21     0.107 C 
HETATM   36  C   MOL     1     -49.208  -7.787  18.064  1.00 -0.06     0.182 C 
HETATM   37  N   MOL     1     -47.959  -8.086  22.516  1.00  0.07    -0.193 NA
BRANCH  33  38
HETATM   38  C   MOL     1     -46.384  -8.834  19.537  1.00 -0.19     0.088 A 
HETATM   39  N   MOL     1     -46.069 -10.059  20.022  1.00 -0.03    -0.229 N 
HETATM   40  C   MOL     1     -44.859 -10.358  19.481  1.00 -0.22     0.104 A 
HETATM   41  N   MOL     1     -46.697 -10.929  20.867  1.00  0.23    -0.160 NA
HETATM   42  C   MOL     1     -44.417  -9.355  18.679  1.00 -0.37     0.038 A 
HETATM   43  C   MOL     1     -44.275 -11.606  19.820  1.00 -0.44     0.151 A 
HETATM   44  C   MOL     1     -45.410  -8.371  18.723  1.00 -0.17     0.034 A 
HETATM   45  N   MOL     1     -44.879 -12.470  20.647  1.00 -0.19    -0.221 NA
HETATM   46  C   MOL     1     -46.094 -12.062  21.136  1.00 -0.33     0.258 A 
BRANCH  43  47
HETATM   47  N   MOL     1     -43.054 -11.978  19.308  1.00 -0.25    -0.382 N 
HETATM   48  H   MOL     1     -42.356 -11.453  19.418  1.00 -0.27     0.157 HD
HETATM   49  H   MOL     1     -42.967 -12.737  18.871  1.00 -0.19     0.157 HD
ENDBRANCH  43  47
ENDBRANCH  33  38
BRANCH  34  50
HETATM   50  O   MOL     1     -48.855 -10.085  18.872  1.00  0.41    -0.388 OA
HETATM   51  H   MOL     1     -47.903 -10.405  18.936  1.00 -0.42     0.210 HD
ENDBRANCH  34  50
BRANCH  36  52
HETATM   52  O   MOL     1     -48.453  -8.261  16.938  1.00  0.07    -0.390 OA
HETATM   53  H   MOL     1     -48.037  -9.157  17.127  1.00 -0.09     0.210 HD
ENDBRANCH  36  52
ENDBRANCH  30  31
ENDBRANCH  29  30
ENDBRANCH  27  29
BRANCH  27  54
HETATM   54  O   MOL     1     -50.467  -4.580  16.301  1.00  0.13    -0.260 OA
BRANCH  54  55
HETATM   55  C   MOL     1     -51.811  -4.756  16.121  1.00 -0.29     0.080 A 
HETATM   56  C   MOL     1     -52.558  -3.902  15.330  1.00 -0.28     0.037 A 
HETATM   57  C   MOL     1     -53.908  -4.109  15.166  1.00 -0.40     0.003 A 
HETATM   58  C   MOL     1     -54.523  -5.170  15.789  1.00 -0.35     0.000 A 
HETATM   59  C   MOL     1     -53.787  -6.024  16.579  1.00 -0.47     0.003 A 
HETATM   60  C   MOL     1     -52.439  -5.816  16.745  1.00 -0.37     0.037 A 
ENDBRANCH  54  55
ENDBRANCH  27  54
ENDBRANCH  25  27
ENDBRANCH  17  25
ENDBRANCH  16  17
ENDBRANCH  13  16
ENDBRANCH   8  13
ENDBRANCH   7   8
ENDBRANCH   3   7
TORSDOF 20
ENDMDL
MODEL 7
REMARK VINA RESULT:      -5.6      5.547     10.227
REMARK  20 active torsions:
REMARK  status: ('A' for Active; 'I' for Inactive)
REMARK    1  A    between atoms: C_3  and  C_7 
REMARK    2  A    between atoms: C_7  and  C_8 
REMARK    3  A    between atoms: C_8  and  N_9 
REMARK    4  A    between atoms: C_8  and  C_10 
REMARK    5  A    between atoms: C_10  and  O_11 
REMARK    6  A    between atoms: C_10  and  C_12 
REMARK    7  A    between atoms: C_12  and  C_13 
REMARK    8  A    between atoms: C_13  and  C_14 
REMARK    9  A    between atoms: C_13  and  N_21 
REMARK   10  A    between atoms: C_14  and  C_15 
REMARK   11  A    between atoms: N_21  and  P_22 
REMARK   12  A    between atoms: P_22  and  O_23 
REMARK   13  A    between atoms: P_22  and  O_24 
REMARK   14  A    between atoms: O_23  and  C_26 
REMARK   15  A    between atoms: O_24  and  C_27 
REMARK   16  A    between atoms: C_26  and  C_33 
REMARK   17  A    between atoms: C_35  and  C_40 
REMARK   18  A    between atoms: C_36  and  O_39 
REMARK   19  A    between atoms: C_37  and  O_38 
REMARK   20  A    between atoms: C_50  and  N_51 
ROOT
HETATM    1  C   MOL     1     -42.933  -1.102  19.678  1.00 -0.25     0.001 A 
HETATM    2  C   MOL     1     -43.689  -1.302  18.545  1.00 -0.30     0.007 A 
HETATM    3  C   MOL     1     -44.228  -0.229  17.870  1.00 -0.25    -0.056 A 
HETATM    4  C   MOL     1     -44.005   1.048  18.338  1.00 -0.33     0.007 A 
HETATM    5  C   MOL     1     -43.250   1.250  19.472  1.00 -0.34     0.001 A 
HETATM    6  C   MOL     1     -42.715   0.175  20.142  1.00 -0.27     0.000 A 
ENDROOT
BRANCH   3   7
HETATM    7  C   MOL     1     -45.061  -0.452  16.615  1.00 -0.43     0.074 C 
BRANCH   7   8
HETATM    8  C   MOL     1     -44.922  -1.853  15.978  1.00 -0.43     0.216 C 
BRANCH   8   9
HETATM    9  N   MOL     1     -44.114  -1.740  14.713  1.00  0.05    -0.072 N 
HETATM   10  H   MOL     1     -43.221  -1.721  14.883  1.00 -0.64     0.274 HD
HETATM   11  H   MOL     1     -44.263  -2.444  14.156  1.00 -0.76     0.274 HD
HETATM   12  H   MOL     1     -44.315  -0.992  14.239  1.00 -0.15     0.274 HD
ENDBRANCH   8   9
BRANCH   8  13
HETATM   13  C   MOL     1     -46.322  -2.447  15.699  1.00 -0.29     0.150 C 
BRANCH  13  14
HETATM   14  O   MOL     1     -46.396  -2.914  14.341  1.00  0.06    -0.393 OA
HETATM   15  H   MOL     1     -47.057  -3.667  14.249  1.00 -0.27     0.210 HD
ENDBRANCH  13  14
BRANCH  13  16
HETATM   16  C   MOL     1     -47.433  -1.402  15.938  1.00 -0.14     0.054 C 
BRANCH  16  17
HETATM   17  C   MOL     1     -48.795  -2.072  16.225  1.00 -0.12     0.073 C 
BRANCH  17  18
HETATM   18  C   MOL     1     -49.819  -1.635  15.153  1.00 -0.13     0.058 C 
BRANCH  18  19
HETATM   19  C   MOL     1     -50.940  -0.733  15.645  1.00 -0.16    -0.057 A 
HETATM   20  C   MOL     1     -51.021  -0.388  16.977  1.00 -0.21     0.007 A 
HETATM   21  C   MOL     1     -52.038   0.426  17.424  1.00 -0.25     0.001 A 
HETATM   22  C   MOL     1     -52.980   0.898  16.541  1.00 -0.37     0.000 A 
HETATM   23  C   MOL     1     -52.904   0.557  15.209  1.00 -0.40     0.001 A 
HETATM   24  C   MOL     1     -51.887  -0.256  14.764  1.00 -0.21     0.007 A 
ENDBRANCH  18  19
ENDBRANCH  17  18
BRANCH  17  25
HETATM   25  N   MOL     1     -48.645  -3.533  16.191  1.00  0.15    -0.221 NA
HETATM   26  H   MOL     1     -47.655  -3.784  16.073  1.00  0.32     0.134 HD
BRANCH  25  27
HETATM   27  P   MOL     1     -49.236  -4.240  17.385  1.00  0.09     0.413 P 
HETATM   28  O   MOL     1     -49.485  -3.284  18.522  1.00  0.07    -0.239 OA
BRANCH  27  29
HETATM   29  O   MOL     1     -48.294  -5.447  17.875  1.00  0.12    -0.299 OA
BRANCH  29  30
HETATM   30  C   MOL     1     -48.863  -6.758  18.012  1.00 -0.20     0.214 C 
BRANCH  30  31
HETATM   31  C   MOL     1     -48.520  -7.330  19.398  1.00 -0.04     0.180 C 
HETATM   32  O   MOL     1     -47.125  -7.163  19.703  1.00  0.26    -0.347 OA
HETATM   33  C   MOL     1     -46.651  -8.270  20.494  1.00 -0.04     0.222 C 
HETATM   34  C   MOL     1     -47.855  -9.228  20.655  1.00 -0.10     0.205 C 
HETATM   35  C   MOL     1     -46.234  -7.755  21.805  1.00 -0.21     0.107 C 
HETATM   36  C   MOL     1     -48.800  -8.835  19.512  1.00 -0.06     0.182 C 
HETATM   37  N   MOL     1     -45.912  -7.356  22.819  1.00  0.07    -0.193 NA
BRANCH  33  38
HETATM   38  C   MOL     1     -45.455  -8.826  19.730  1.00 -0.19     0.088 A 
HETATM   39  N   MOL     1     -44.591  -9.688  20.317  1.00 -0.03    -0.229 N 
HETATM   40  C   MOL     1     -43.663  -9.969  19.364  1.00 -0.22     0.104 A 
HETATM   41  N   MOL     1     -44.515 -10.246  21.561  1.00  0.23    -0.160 NA
HETATM   42  C   MOL     1     -43.928  -9.306  18.209  1.00 -0.37     0.038 A 
HETATM   43  C   MOL     1     -42.618 -10.865  19.707  1.00 -0.44     0.151 A 
HETATM   44  C   MOL     1     -45.088  -8.566  18.455  1.00 -0.17     0.034 A 
HETATM   45  N   MOL     1     -42.529 -11.420  20.923  1.00 -0.19    -0.221 NA
HETATM   46  C   MOL     1     -43.517 -11.062  21.805  1.00 -0.33     0.258 A 
BRANCH  43  47
HETATM   47  N   MOL     1     -41.646 -11.199  18.793  1.00 -0.25    -0.382 N 
HETATM   48  H   MOL     1     -41.293 -10.575  18.283  1.00 -0.27     0.157 HD
HETATM   49  H   MOL     1     -41.374 -12.033  18.716  1.00 -0.19     0.157 HD
ENDBRANCH  43  47
ENDBRANCH  33  38
BRANCH  34  50
HETATM   50  O   MOL     1     -47.493 -10.616  20.596  1.00  0.41    -0.388 OA
HETATM   51  H   MOL     1     -46.499 -10.732  20.493  1.00 -0.42     0.210 HD
ENDBRANCH  34  50
BRANCH  36  52
HETATM   52  O   MOL     1     -48.431  -9.540  18.317  1.00  0.07    -0.390 OA
HETATM   53  H   MOL     1     -48.025  -8.919  17.637  1.00 -0.09     0.210 HD
ENDBRANCH  36  52
ENDBRANCH  30  31
ENDBRANCH  29  30
ENDBRANCH  27  29
BRANCH  27  54
HETATM   54  O   MOL     1     -50.601  -4.990  16.968  1.00  0.13    -0.260 OA
BRANCH  54  55
HETATM   55  C   MOL     1     -51.751  -4.308  16.684  1.00 -0.29     0.080 A 
HETATM   56  C   MOL     1     -52.479  -3.665  17.668  1.00 -0.28     0.037 A 
HETATM   57  C   MOL     1     -53.630  -2.983  17.349  1.00 -0.40     0.003 A 
HETATM   58  C   MOL     1     -54.064  -2.936  16.043  1.00 -0.35     0.000 A 
HETATM   59  C   MOL     1     -53.345  -3.574  15.058  1.00 -0.47     0.003 A 
HETATM   60  C   MOL     1     -52.196  -4.258  15.377  1.00 -0.37     0.037 A 
ENDBRANCH  54  55
ENDBRANCH  27  54
ENDBRANCH  25  27
ENDBRANCH  17  25
ENDBRANCH  16  17
ENDBRANCH  13  16
ENDBRANCH   8  13
ENDBRANCH   7   8
ENDBRANCH   3   7
TORSDOF 20
ENDMDL
MODEL 8
REMARK VINA RESULT:      -5.6      2.654      3.892
REMARK  20 active torsions:
REMARK  status: ('A' for Active; 'I' for Inactive)
REMARK    1  A    between atoms: C_3  and  C_7 
REMARK    2  A    between atoms: C_7  and  C_8 
REMARK    3  A    between atoms: C_8  and  N_9 
REMARK    4  A    between atoms: C_8  and  C_10 
REMARK    5  A    between atoms: C_10  and  O_11 
REMARK    6  A    between atoms: C_10  and  C_12 
REMARK    7  A    between atoms: C_12  and  C_13 
REMARK    8  A    between atoms: C_13  and  C_14 
REMARK    9  A    between atoms: C_13  and  N_21 
REMARK   10  A    between atoms: C_14  and  C_15 
REMARK   11  A    between atoms: N_21  and  P_22 
REMARK   12  A    between atoms: P_22  and  O_23 
REMARK   13  A    between atoms: P_22  and  O_24 
REMARK   14  A    between atoms: O_23  and  C_26 
REMARK   15  A    between atoms: O_24  and  C_27 
REMARK   16  A    between atoms: C_26  and  C_33 
REMARK   17  A    between atoms: C_35  and  C_40 
REMARK   18  A    between atoms: C_36  and  O_39 
REMARK   19  A    between atoms: C_37  and  O_38 
REMARK   20  A    between atoms: C_50  and  N_51 
ROOT
HETATM    1  C   MOL     1     -43.301   1.054  19.781  1.00 -0.25     0.001 A 
HETATM    2  C   MOL     1     -43.799   0.974  18.500  1.00 -0.30     0.007 A 
HETATM    3  C   MOL     1     -44.170  -0.243  17.971  1.00 -0.25    -0.056 A 
HETATM    4  C   MOL     1     -44.038  -1.382  18.737  1.00 -0.33     0.007 A 
HETATM    5  C   MOL     1     -43.539  -1.305  20.017  1.00 -0.34     0.001 A 
HETATM    6  C   MOL     1     -43.171  -0.086  20.539  1.00 -0.27     0.000 A 
ENDROOT
BRANCH   3   7
HETATM    7  C   MOL     1     -44.723  -0.328  16.556  1.00 -0.43     0.074 C 
BRANCH   7   8
HETATM    8  C   MOL     1     -44.737  -1.747  15.944  1.00 -0.43     0.216 C 
BRANCH   8   9
HETATM    9  N   MOL     1     -43.905  -1.749  14.689  1.00  0.05    -0.072 N 
HETATM   10  H   MOL     1     -44.037  -0.997  14.195  1.00 -0.64     0.274 HD
HETATM   11  H   MOL     1     -43.015  -1.790  14.877  1.00 -0.76     0.274 HD
HETATM   12  H   MOL     1     -44.086  -2.461  14.155  1.00 -0.15     0.274 HD
ENDBRANCH   8   9
BRANCH   8  13
HETATM   13  C   MOL     1     -46.192  -2.183  15.654  1.00 -0.29     0.150 C 
BRANCH  13  14
HETATM   14  O   MOL     1     -46.252  -2.900  14.408  1.00  0.06    -0.393 OA
HETATM   15  H   MOL     1     -46.311  -3.892  14.561  1.00 -0.27     0.210 HD
ENDBRANCH  13  14
BRANCH  13  16
HETATM   16  C   MOL     1     -47.139  -0.965  15.584  1.00 -0.14     0.054 C 
BRANCH  16  17
HETATM   17  C   MOL     1     -48.490  -1.252  16.275  1.00 -0.12     0.073 C 
BRANCH  17  18
HETATM   18  C   MOL     1     -48.245  -1.599  17.761  1.00 -0.13     0.058 C 
BRANCH  18  19
HETATM   19  C   MOL     1     -47.821  -0.436  18.645  1.00 -0.16    -0.057 A 
HETATM   20  C   MOL     1     -47.745   0.839  18.127  1.00 -0.21     0.007 A 
HETATM   21  C   MOL     1     -47.358   1.892  18.925  1.00 -0.25     0.001 A 
HETATM   22  C   MOL     1     -47.045   1.675  20.247  1.00 -0.37     0.000 A 
HETATM   23  C   MOL     1     -47.120   0.403  20.770  1.00 -0.40     0.001 A 
HETATM   24  C   MOL     1     -47.508  -0.648  19.970  1.00 -0.21     0.007 A 
ENDBRANCH  18  19
ENDBRANCH  17  18
BRANCH  17  25
HETATM   25  N   MOL     1     -49.354  -0.067  16.185  1.00  0.15    -0.221 NA
HETATM   26  H   MOL     1     -48.893   0.666  15.630  1.00  0.32     0.134 HD
BRANCH  25  27
HETATM   27  P   MOL     1     -50.735  -0.351  15.651  1.00  0.09     0.413 P 
HETATM   28  O   MOL     1     -50.923  -1.817  15.363  1.00  0.07    -0.239 OA
BRANCH  27  29
HETATM   29  O   MOL     1     -51.041   0.515  14.331  1.00  0.12    -0.299 OA
BRANCH  29  30
HETATM   30  C   MOL     1     -52.133   1.446  14.350  1.00 -0.20     0.214 C 
BRANCH  30  31
HETATM   31  C   MOL     1     -51.636   2.838  13.929  1.00 -0.04     0.180 C 
HETATM   32  O   MOL     1     -52.731   3.700  13.573  1.00  0.26    -0.347 OA
HETATM   33  C   MOL     1     -52.337   4.598  12.518  1.00 -0.04     0.222 C 
HETATM   34  C   MOL     1     -50.878   4.227  12.162  1.00 -0.10     0.205 C 
HETATM   35  C   MOL     1     -52.399   5.972  13.034  1.00 -0.21     0.107 C 
HETATM   36  C   MOL     1     -50.713   2.801  12.703  1.00 -0.06     0.182 C 
HETATM   37  N   MOL     1     -52.446   7.035  13.435  1.00  0.07    -0.193 NA
BRANCH  33  38
HETATM   38  C   MOL     1     -53.366   4.393  11.412  1.00 -0.19     0.088 A 
HETATM   39  N   MOL     1     -53.407   5.215  10.337  1.00 -0.03    -0.229 N 
HETATM   40  C   MOL     1     -54.429   4.750   9.570  1.00 -0.22     0.104 A 
HETATM   41  N   MOL     1     -52.677   6.304   9.953  1.00  0.23    -0.160 NA
HETATM   42  C   MOL     1     -55.019   3.668  10.141  1.00 -0.37     0.038 A 
HETATM   43  C   MOL     1     -54.706   5.432   8.357  1.00 -0.44     0.151 A 
HETATM   44  C   MOL     1     -54.326   3.445  11.334  1.00 -0.17     0.034 A 
HETATM   45  N   MOL     1     -53.999   6.501   7.966  1.00 -0.19    -0.221 NA
HETATM   46  C   MOL     1     -52.995   6.883   8.819  1.00 -0.33     0.258 A 
BRANCH  43  47
HETATM   47  N   MOL     1     -55.722   5.015   7.529  1.00 -0.25    -0.382 N 
HETATM   48  H   MOL     1     -56.557   5.074   7.799  1.00 -0.27     0.157 HD
HETATM   49  H   MOL     1     -55.541   4.692   6.730  1.00 -0.19     0.157 HD
ENDBRANCH  43  47
ENDBRANCH  33  38
BRANCH  34  50
HETATM   50  O   MOL     1     -50.596   4.301  10.756  1.00  0.41    -0.388 OA
HETATM   51  H   MOL     1     -49.613   4.191  10.573  1.00 -0.42     0.210 HD
ENDBRANCH  34  50
BRANCH  36  52
HETATM   52  O   MOL     1     -51.167   1.857  11.721  1.00  0.07    -0.390 OA
HETATM   53  H   MOL     1     -50.499   1.757  10.974  1.00 -0.09     0.210 HD
ENDBRANCH  36  52
ENDBRANCH  30  31
ENDBRANCH  29  30
ENDBRANCH  27  29
BRANCH  27  54
HETATM   54  O   MOL     1     -51.852   0.168  16.692  1.00  0.13    -0.260 OA
BRANCH  54  55
HETATM   55  C   MOL     1     -51.528   0.644  17.932  1.00 -0.29     0.080 A 
HETATM   56  C   MOL     1     -51.248   1.981  18.150  1.00 -0.28     0.037 A 
HETATM   57  C   MOL     1     -50.929   2.429  19.410  1.00 -0.40     0.003 A 
HETATM   58  C   MOL     1     -50.889   1.547  20.465  1.00 -0.35     0.000 A 
HETATM   59  C   MOL     1     -51.166   0.215  20.258  1.00 -0.47     0.003 A 
HETATM   60  C   MOL     1     -51.482  -0.234  18.997  1.00 -0.37     0.037 A 
ENDBRANCH  54  55
ENDBRANCH  27  54
ENDBRANCH  25  27
ENDBRANCH  17  25
ENDBRANCH  16  17
ENDBRANCH  13  16
ENDBRANCH   8  13
ENDBRANCH   7   8
ENDBRANCH   3   7
TORSDOF 20
ENDMDL
MODEL 9
REMARK VINA RESULT:      -5.5      4.621      7.653
REMARK  20 active torsions:
REMARK  status: ('A' for Active; 'I' for Inactive)
REMARK    1  A    between atoms: C_3  and  C_7 
REMARK    2  A    between atoms: C_7  and  C_8 
REMARK    3  A    between atoms: C_8  and  N_9 
REMARK    4  A    between atoms: C_8  and  C_10 
REMARK    5  A    between atoms: C_10  and  O_11 
REMARK    6  A    between atoms: C_10  and  C_12 
REMARK    7  A    between atoms: C_12  and  C_13 
REMARK    8  A    between atoms: C_13  and  C_14 
REMARK    9  A    between atoms: C_13  and  N_21 
REMARK   10  A    between atoms: C_14  and  C_15 
REMARK   11  A    between atoms: N_21  and  P_22 
REMARK   12  A    between atoms: P_22  and  O_23 
REMARK   13  A    between atoms: P_22  and  O_24 
REMARK   14  A    between atoms: O_23  and  C_26 
REMARK   15  A    between atoms: O_24  and  C_27 
REMARK   16  A    between atoms: C_26  and  C_33 
REMARK   17  A    between atoms: C_35  and  C_40 
REMARK   18  A    between atoms: C_36  and  O_39 
REMARK   19  A    between atoms: C_37  and  O_38 
REMARK   20  A    between atoms: C_50  and  N_51 
ROOT
HETATM    1  C   MOL     1     -43.282   1.012  19.717  1.00 -0.25     0.001 A 
HETATM    2  C   MOL     1     -43.814   0.936  18.450  1.00 -0.30     0.007 A 
HETATM    3  C   MOL     1     -44.087  -0.290  17.882  1.00 -0.25    -0.056 A 
HETATM    4  C   MOL     1     -43.823  -1.440  18.594  1.00 -0.33     0.007 A 
HETATM    5  C   MOL     1     -43.290  -1.366  19.861  1.00 -0.34     0.001 A 
HETATM    6  C   MOL     1     -43.020  -0.140  20.422  1.00 -0.27     0.000 A 
ENDROOT
BRANCH   3   7
HETATM    7  C   MOL     1     -44.677  -0.371  16.481  1.00 -0.43     0.074 C 
BRANCH   7   8
HETATM    8  C   MOL     1     -44.891  -1.804  15.944  1.00 -0.43     0.216 C 
BRANCH   8   9
HETATM    9  N   MOL     1     -44.266  -1.916  14.579  1.00  0.05    -0.072 N 
HETATM   10  H   MOL     1     -44.231  -2.778  14.293  1.00 -0.64     0.274 HD
HETATM   11  H   MOL     1     -44.736  -1.448  13.955  1.00 -0.76     0.274 HD
HETATM   12  H   MOL     1     -43.419  -1.588  14.558  1.00 -0.15     0.274 HD
ENDBRANCH   8   9
BRANCH   8  13
HETATM   13  C   MOL     1     -46.402  -2.132  15.899  1.00 -0.29     0.150 C 
BRANCH  13  14
HETATM   14  O   MOL     1     -46.722  -2.802  14.667  1.00  0.06    -0.393 OA
HETATM   15  H   MOL     1     -46.262  -2.369  13.885  1.00 -0.27     0.210 HD
ENDBRANCH  13  14
BRANCH  13  16
HETATM   16  C   MOL     1     -47.257  -0.852  16.017  1.00 -0.14     0.054 C 
BRANCH  16  17
HETATM   17  C   MOL     1     -48.011  -0.791  17.364  1.00 -0.12     0.073 C 
BRANCH  17  18
HETATM   18  C   MOL     1     -47.939   0.645  17.930  1.00 -0.13     0.058 C 
BRANCH  18  19
HETATM   19  C   MOL     1     -47.366   0.770  19.333  1.00 -0.16    -0.057 A 
HETATM   20  C   MOL     1     -47.059  -0.359  20.061  1.00 -0.21     0.007 A 
HETATM   21  C   MOL     1     -46.542  -0.248  21.333  1.00 -0.25     0.001 A 
HETATM   22  C   MOL     1     -46.333   0.995  21.883  1.00 -0.37     0.000 A 
HETATM   23  C   MOL     1     -46.638   2.127  21.161  1.00 -0.40     0.001 A 
HETATM   24  C   MOL     1     -47.153   2.013  19.889  1.00 -0.21     0.007 A 
ENDBRANCH  18  19
ENDBRANCH  17  18
BRANCH  17  25
HETATM   25  N   MOL     1     -49.417  -1.168  17.161  1.00  0.15    -0.221 NA
HETATM   26  H   MOL     1     -49.592  -1.362  16.167  1.00  0.32     0.134 HD
BRANCH  25  27
HETATM   27  P   MOL     1     -49.874  -2.322  18.018  1.00  0.09     0.413 P 
HETATM   28  O   MOL     1     -48.726  -2.932  18.778  1.00  0.07    -0.239 OA
BRANCH  27  29
HETATM   29  O   MOL     1     -50.613  -3.446  17.137  1.00  0.12    -0.299 OA
BRANCH  29  30
HETATM   30  C   MOL     1     -49.823  -4.301  16.299  1.00 -0.20     0.214 C 
BRANCH  30  31
HETATM   31  C   MOL     1     -50.081  -5.771  16.665  1.00 -0.04     0.180 C 
HETATM   32  O   MOL     1     -51.118  -5.891  17.654  1.00  0.26    -0.347 OA
HETATM   33  C   MOL     1     -50.852  -7.007  18.525  1.00 -0.04     0.222 C 
HETATM   34  C   MOL     1     -49.504  -7.604  18.056  1.00 -0.10     0.205 C 
HETATM   35  C   MOL     1     -51.928  -7.991  18.356  1.00 -0.21     0.107 C 
HETATM   36  C   MOL     1     -48.848  -6.467  17.260  1.00 -0.06     0.182 C 
HETATM   37  N   MOL     1     -52.761  -8.754  18.225  1.00  0.07    -0.193 NA
BRANCH  33  38
HETATM   38  C   MOL     1     -50.870  -6.427  19.935  1.00 -0.19     0.088 A 
HETATM   39  N   MOL     1     -50.816  -7.234  21.022  1.00 -0.03    -0.229 N 
HETATM   40  C   MOL     1     -50.855  -6.395  22.091  1.00 -0.22     0.104 A 
HETATM   41  N   MOL     1     -50.743  -8.587  21.189  1.00  0.23    -0.160 NA
HETATM   42  C   MOL     1     -50.933  -5.099  21.697  1.00 -0.37     0.038 A 
HETATM   43  C   MOL     1     -50.811  -6.976  23.385  1.00 -0.44     0.151 A 
HETATM   44  C   MOL     1     -50.944  -5.128  20.300  1.00 -0.17     0.034 A 
HETATM   45  N   MOL     1     -50.739  -8.302  23.566  1.00 -0.19    -0.221 NA
HETATM   46  C   MOL     1     -50.709  -9.050  22.416  1.00 -0.33     0.258 A 
BRANCH  43  47
HETATM   47  N   MOL     1     -50.842  -6.191  24.513  1.00 -0.25    -0.382 N 
HETATM   48  H   MOL     1     -51.176  -6.513  25.261  1.00 -0.27     0.157 HD
HETATM   49  H   MOL     1     -50.530  -5.368  24.493  1.00 -0.19     0.157 HD
ENDBRANCH  43  47
ENDBRANCH  33  38
BRANCH  34  50
HETATM   50  O   MOL     1     -48.669  -8.049  19.137  1.00  0.41    -0.388 OA
HETATM   51  H   MOL     1     -47.732  -7.693  19.047  1.00 -0.42     0.210 HD
ENDBRANCH  34  50
BRANCH  36  52
HETATM   52  O   MOL     1     -48.128  -5.605  18.155  1.00  0.07    -0.390 OA
HETATM   53  H   MOL     1     -48.652  -5.430  18.995  1.00 -0.09     0.210 HD
ENDBRANCH  36  52
ENDBRANCH  30  31
ENDBRANCH  29  30
ENDBRANCH  27  29
BRANCH  27  54
HETATM   54  O   MOL     1     -51.030  -1.838  19.033  1.00  0.13    -0.260 OA
BRANCH  54  55
HETATM   55  C   MOL     1     -50.786  -0.955  20.048  1.00 -0.29     0.080 A 
HETATM   56  C   MOL     1     -50.317  -1.372  21.281  1.00 -0.28     0.037 A 
HETATM   57  C   MOL     1     -50.078  -0.459  22.280  1.00 -0.40     0.003 A 
HETATM   58  C   MOL     1     -50.303   0.880  22.058  1.00 -0.35     0.000 A 
HETATM   59  C   MOL     1     -50.770   1.304  20.834  1.00 -0.47     0.003 A 
HETATM   60  C   MOL     1     -51.012   0.391  19.836  1.00 -0.37     0.037 A 
ENDBRANCH  54  55
ENDBRANCH  27  54
ENDBRANCH  25  27
ENDBRANCH  17  25
ENDBRANCH  16  17
ENDBRANCH  13  16
ENDBRANCH   8  13
ENDBRANCH   7   8
ENDBRANCH   3   7
TORSDOF 20
ENDMDL
MODEL 10
REMARK VINA RESULT:      -5.5      1.892      3.797
REMARK  20 active torsions:
REMARK  status: ('A' for Active; 'I' for Inactive)
REMARK    1  A    between atoms: C_3  and  C_7 
REMARK    2  A    between atoms: C_7  and  C_8 
REMARK    3  A    between atoms: C_8  and  N_9 
REMARK    4  A    between atoms: C_8  and  C_10 
REMARK    5  A    between atoms: C_10  and  O_11 
REMARK    6  A    between atoms: C_10  and  C_12 
REMARK    7  A    between atoms: C_12  and  C_13 
REMARK    8  A    between atoms: C_13  and  C_14 
REMARK    9  A    between atoms: C_13  and  N_21 
REMARK   10  A    between atoms: C_14  and  C_15 
REMARK   11  A    between atoms: N_21  and  P_22 
REMARK   12  A    between atoms: P_22  and  O_23 
REMARK   13  A    between atoms: P_22  and  O_24 
REMARK   14  A    between atoms: O_23  and  C_26 
REMARK   15  A    between atoms: O_24  and  C_27 
REMARK   16  A    between atoms: C_26  and  C_33 
REMARK   17  A    between atoms: C_35  and  C_40 
REMARK   18  A    between atoms: C_36  and  O_39 
REMARK   19  A    between atoms: C_37  and  O_38 
REMARK   20  A    between atoms: C_50  and  N_51 
ROOT
HETATM    1  C   MOL     1     -43.176  -1.727  18.766  1.00 -0.25     0.001 A 
HETATM    2  C   MOL     1     -43.878  -1.748  17.582  1.00 -0.30     0.007 A 
HETATM    3  C   MOL     1     -44.508  -0.611  17.125  1.00 -0.25    -0.056 A 
HETATM    4  C   MOL     1     -44.429   0.550  17.865  1.00 -0.33     0.007 A 
HETATM    5  C   MOL     1     -43.729   0.573  19.050  1.00 -0.34     0.001 A 
HETATM    6  C   MOL     1     -43.103  -0.567  19.500  1.00 -0.27     0.000 A 
ENDROOT
BRANCH   3   7
HETATM    7  C   MOL     1     -45.281  -0.636  15.814  1.00 -0.43     0.074 C 
BRANCH   7   8
HETATM    8  C   MOL     1     -46.308  -1.782  15.682  1.00 -0.43     0.216 C 
BRANCH   8   9
HETATM    9  N   MOL     1     -45.788  -2.795  14.696  1.00  0.05    -0.072 N 
HETATM   10  H   MOL     1     -46.439  -3.371  14.428  1.00 -0.64     0.274 HD
HETATM   11  H   MOL     1     -45.462  -2.396  13.946  1.00 -0.76     0.274 HD
HETATM   12  H   MOL     1     -45.109  -3.293  15.036  1.00 -0.15     0.274 HD
ENDBRANCH   8   9
BRANCH   8  13
HETATM   13  C   MOL     1     -47.677  -1.217  15.238  1.00 -0.29     0.150 C 
BRANCH  13  14
HETATM   14  O   MOL     1     -47.496  -0.280  14.162  1.00  0.06    -0.393 OA
HETATM   15  H   MOL     1     -47.206  -0.744  13.318  1.00 -0.27     0.210 HD
ENDBRANCH  13  14
BRANCH  13  16
HETATM   16  C   MOL     1     -48.399  -0.514  16.408  1.00 -0.14     0.054 C 
BRANCH  16  17
HETATM   17  C   MOL     1     -49.860  -0.995  16.548  1.00 -0.12     0.073 C 
BRANCH  17  18
HETATM   18  C   MOL     1     -50.018  -2.369  15.858  1.00 -0.13     0.058 C 
BRANCH  18  19
HETATM   19  C   MOL     1     -51.445  -2.774  15.522  1.00 -0.16    -0.057 A 
HETATM   20  C   MOL     1     -51.971  -3.946  16.022  1.00 -0.21     0.007 A 
HETATM   21  C   MOL     1     -53.262  -4.315  15.715  1.00 -0.25     0.001 A 
HETATM   22  C   MOL     1     -54.032  -3.515  14.904  1.00 -0.37     0.000 A 
HETATM   23  C   MOL     1     -53.511  -2.343  14.401  1.00 -0.40     0.001 A 
HETATM   24  C   MOL     1     -52.221  -1.975  14.710  1.00 -0.21     0.007 A 
ENDBRANCH  18  19
ENDBRANCH  17  18
BRANCH  17  25
HETATM   25  N   MOL     1     -50.205  -1.120  17.971  1.00  0.15    -0.221 NA
HETATM   26  H   MOL     1     -49.350  -1.143  18.542  1.00  0.32     0.134 HD
BRANCH  25  27
HETATM   27  P   MOL     1     -51.150  -0.056  18.470  1.00  0.09     0.413 P 
HETATM   28  O   MOL     1     -51.818  -0.472  19.755  1.00  0.07    -0.239 OA
BRANCH  27  29
HETATM   29  O   MOL     1     -52.259   0.308  17.364  1.00  0.12    -0.299 OA
BRANCH  29  30
HETATM   30  C   MOL     1     -53.563   0.719  17.798  1.00 -0.20     0.214 C 
BRANCH  30  31
HETATM   31  C   MOL     1     -54.174   1.682  16.767  1.00 -0.04     0.180 C 
HETATM   32  O   MOL     1     -53.861   1.279  15.423  1.00  0.26    -0.347 OA
HETATM   33  C   MOL     1     -53.708   2.435  14.578  1.00 -0.04     0.222 C 
HETATM   34  C   MOL     1     -53.902   3.665  15.495  1.00 -0.10     0.205 C 
HETATM   35  C   MOL     1     -54.756   2.397  13.550  1.00 -0.21     0.107 C 
HETATM   36  C   MOL     1     -53.656   3.120  16.908  1.00 -0.06     0.182 C 
HETATM   37  N   MOL     1     -55.569   2.369  12.755  1.00  0.07    -0.193 NA
BRANCH  33  38
HETATM   38  C   MOL     1     -52.329   2.287  13.943  1.00 -0.19     0.088 A 
HETATM   39  N   MOL     1     -51.885   3.177  13.023  1.00 -0.03    -0.229 N 
HETATM   40  C   MOL     1     -50.644   2.744  12.677  1.00 -0.22     0.104 A 
HETATM   41  N   MOL     1     -52.424   4.297  12.458  1.00  0.23    -0.160 NA
HETATM   42  C   MOL     1     -50.310   1.615  13.354  1.00 -0.37     0.038 A 
HETATM   43  C   MOL     1     -49.928   3.499  11.713  1.00 -0.44     0.151 A 
HETATM   44  C   MOL     1     -51.408   1.325  14.170  1.00 -0.17     0.034 A 
HETATM   45  N   MOL     1     -50.442   4.601  11.149  1.00 -0.19    -0.221 NA
HETATM   46  C   MOL     1     -51.703   4.941  11.572  1.00 -0.33     0.258 A 
BRANCH  43  47
HETATM   47  N   MOL     1     -48.665   3.124  11.317  1.00 -0.25    -0.382 N 
HETATM   48  H   MOL     1     -48.567   2.505  10.699  1.00 -0.27     0.157 HD
HETATM   49  H   MOL     1     -47.955   3.500  11.677  1.00 -0.19     0.157 HD
ENDBRANCH  43  47
ENDBRANCH  33  38
BRANCH  34  50
HETATM   50  O   MOL     1     -53.022   4.757  15.182  1.00  0.41    -0.388 OA
HETATM   51  H   MOL     1     -52.377   4.509  14.451  1.00 -0.42     0.210 HD
ENDBRANCH  34  50
BRANCH  36  52
HETATM   52  O   MOL     1     -52.250   3.156  17.200  1.00  0.07    -0.390 OA
HETATM   53  H   MOL     1     -51.907   2.245  17.455  1.00 -0.09     0.210 HD
ENDBRANCH  36  52
ENDBRANCH  30  31
ENDBRANCH  29  30
ENDBRANCH  27  29
BRANCH  27  54
HETATM   54  O   MOL     1     -50.364   1.339  18.668  1.00  0.13    -0.260 OA
BRANCH  54  55
HETATM   55  C   MOL     1     -49.256   1.445  19.460  1.00 -0.29     0.080 A 
HETATM   56  C   MOL     1     -49.239   0.968  20.759  1.00 -0.28     0.037 A 
HETATM   57  C   MOL     1     -48.106   1.087  21.529  1.00 -0.40     0.003 A 
HETATM   58  C   MOL     1     -46.979   1.682  21.010  1.00 -0.35     0.000 A 
HETATM   59  C   MOL     1     -46.987   2.159  19.719  1.00 -0.47     0.003 A 
HETATM   60  C   MOL     1     -48.120   2.044  18.949  1.00 -0.37     0.037 A 
ENDBRANCH  54  55
ENDBRANCH  27  54
ENDBRANCH  25  27
ENDBRANCH  17  25
ENDBRANCH  16  17
ENDBRANCH  13  16
ENDBRANCH   8  13
ENDBRANCH   7   8
ENDBRANCH   3   7
TORSDOF 20
ENDMDL
