MODEL 1
REMARK VINA RESULT:      -6.9      0.000      0.000
REMARK  15 active torsions:
REMARK  status: ('A' for Active; 'I' for Inactive)
REMARK    1  A    between atoms: O_2  and  C_18 
REMARK    2  A    between atoms: O_2  and  C_22 
REMARK    3  A    between atoms: O_4  and  C_14 
REMARK    4  A    between atoms: O_5  and  C_21 
REMARK    5  A    between atoms: O_5  and  C_25 
REMARK    6  A    between atoms: O_6  and  C_15 
REMARK    7  A    between atoms: O_7  and  C_16 
REMARK    8  A    between atoms: O_8  and  C_17 
REMARK    9  A    between atoms: O_9  and  C_19 
REMARK   10  A    between atoms: O_10  and  C_20 
REMARK   11  A    between atoms: O_11  and  C_30 
REMARK   12  A    between atoms: O_12  and  C_32 
REMARK   13  A    between atoms: C_13  and  C_22 
REMARK   14  A    between atoms: C_25  and  C_26 
REMARK   15  A    between atoms: C_26  and  C_27 
ROOT
HETATM    1  O   UNK     0     -46.497  -0.739  18.205  0.00  0.00    -0.348 OA
HETATM    2  C   UNK     0     -46.866  -0.114  16.974  0.00  0.00     0.180 C 
HETATM    3  C   UNK     0     -46.357  -0.945  15.794  0.00  0.00     0.180 C 
HETATM    4  C   UNK     0     -44.846  -1.161  15.893  0.00  0.00     0.183 C 
HETATM    5  C   UNK     0     -44.449  -1.659  17.282  0.00  0.00     0.204 C 
HETATM    6  C   UNK     0     -45.084  -0.809  18.381  0.00  0.00     0.291 C 
ENDROOT
BRANCH   2   7
HETATM    7  C   UNK     0     -48.385   0.016  16.961  0.00  0.00     0.205 C 
BRANCH   7   8
HETATM    8  O   UNK     0     -48.953  -1.237  16.604  0.00  0.00    -0.356 OA
BRANCH   8   9
HETATM    9  C   UNK     0     -50.051  -1.075  15.713  0.00  0.00     0.291 C 
HETATM   10  O   UNK     0     -51.181  -1.870  16.087  0.00  0.00    -0.351 OA
HETATM   11  C   UNK     0     -50.950  -3.282  16.029  0.00  0.00     0.152 C 
HETATM   12  C   UNK     0     -50.555  -3.718  14.611  0.00  0.00     0.178 C 
HETATM   13  C   UNK     0     -52.233  -3.963  16.501  0.00  0.00     0.042 C 
HETATM   14  C   UNK     0     -49.355  -2.904  14.127  0.00  0.00     0.183 C 
HETATM   15  C   UNK     0     -49.610  -1.404  14.287  0.00  0.00     0.204 C 
BRANCH  12  16
HETATM   16  O   UNK     0     -50.189  -5.095  14.603  0.00  0.00    -0.390 OA
HETATM   17  H   UNK     0     -49.997  -5.362  15.518  0.00  0.00     0.210 HD
ENDBRANCH  12  16
BRANCH  14  18
HETATM   18  O   UNK     0     -49.103  -3.209  12.757  0.00  0.00    -0.390 OA
HETATM   19  H   UNK     0     -49.003  -2.366  12.282  0.00  0.00     0.210 HD
ENDBRANCH  14  18
BRANCH  15  20
HETATM   20  O   UNK     0     -50.653  -0.990  13.403  0.00  0.00    -0.388 OA
HETATM   21  H   UNK     0     -51.486  -1.365  13.735  0.00  0.00     0.210 HD
ENDBRANCH  15  20
ENDBRANCH   8   9
ENDBRANCH   7   8
ENDBRANCH   2   7
BRANCH   6  22
HETATM   22  O   UNK     0     -44.785  -1.419  19.637  0.00  0.00    -0.358 OA
BRANCH  22  23
HETATM   23  C   UNK     0     -44.358  -0.457  20.589  0.00  0.00     0.175 C 
BRANCH  23  24
HETATM   24  C   UNK     0     -42.842  -0.518  20.739  0.00  0.00     0.065 C 
BRANCH  24  25
HETATM   25  C   UNK     0     -42.179   0.796  20.409  0.00  0.00    -0.053 A 
HETATM   26  C   UNK     0     -41.139   1.273  21.206  0.00  0.00     0.046 A 
HETATM   27  C   UNK     0     -40.525   2.487  20.899  0.00  0.00     0.099 A 
HETATM   28  C   UNK     0     -40.952   3.225  19.795  0.00  0.00     0.098 A 
HETATM   29  C   UNK     0     -41.992   2.749  18.998  0.00  0.00     0.040 A 
HETATM   30  C   UNK     0     -42.606   1.534  19.304  0.00  0.00     0.010 A 
BRANCH  27  31
HETATM   31  O   UNK     0     -39.508   2.941  21.684  0.00  0.00    -0.358 OA
HETATM   32  H   UNK     0     -39.110   2.188  22.153  0.00  0.00     0.217 HD
ENDBRANCH  27  31
BRANCH  28  33
HETATM   33  O   UNK     0     -40.360   4.413  19.486  0.00  0.00    -0.358 OA
HETATM   34  H   UNK     0     -39.623   4.569  20.101  0.00  0.00     0.217 HD
ENDBRANCH  28  33
ENDBRANCH  24  25
ENDBRANCH  23  24
ENDBRANCH  22  23
ENDBRANCH   6  22
BRANCH   3  35
HETATM   35  O   UNK     0     -46.658  -0.268  14.577  0.00  0.00    -0.390 OA
HETATM   36  H   UNK     0     -47.586   0.022  14.616  0.00  0.00     0.210 HD
ENDBRANCH   3  35
BRANCH   5  37
HETATM   37  O   UNK     0     -43.030  -1.586  17.424  0.00  0.00    -0.388 OA
HETATM   38  H   UNK     0     -42.766  -2.200  18.130  0.00  0.00     0.210 HD
ENDBRANCH   5  37
BRANCH   4  39
HETATM   39  O   UNK     0     -44.474  -2.132  14.914  0.00  0.00    -0.390 OA
HETATM   40  H   UNK     0     -45.067  -2.898  15.006  0.00  0.00     0.210 HD
ENDBRANCH   4  39
TORSDOF 15
ENDMDL
MODEL 2
REMARK VINA RESULT:      -6.7      2.291      3.473
REMARK  15 active torsions:
REMARK  status: ('A' for Active; 'I' for Inactive)
REMARK    1  A    between atoms: O_2  and  C_18 
REMARK    2  A    between atoms: O_2  and  C_22 
REMARK    3  A    between atoms: O_4  and  C_14 
REMARK    4  A    between atoms: O_5  and  C_21 
REMARK    5  A    between atoms: O_5  and  C_25 
REMARK    6  A    between atoms: O_6  and  C_15 
REMARK    7  A    between atoms: O_7  and  C_16 
REMARK    8  A    between atoms: O_8  and  C_17 
REMARK    9  A    between atoms: O_9  and  C_19 
REMARK   10  A    between atoms: O_10  and  C_20 
REMARK   11  A    between atoms: O_11  and  C_30 
REMARK   12  A    between atoms: O_12  and  C_32 
REMARK   13  A    between atoms: C_13  and  C_22 
REMARK   14  A    between atoms: C_25  and  C_26 
REMARK   15  A    between atoms: C_26  and  C_27 
ROOT
HETATM    1  O   UNK     0     -47.586  -1.339  17.592  0.00  0.00    -0.348 OA
HETATM    2  C   UNK     0     -48.160  -0.970  16.336  0.00  0.00     0.180 C 
HETATM    3  C   UNK     0     -47.674  -1.922  15.241  0.00  0.00     0.180 C 
HETATM    4  C   UNK     0     -46.147  -1.948  15.182  0.00  0.00     0.183 C 
HETATM    5  C   UNK     0     -45.544  -2.163  16.570  0.00  0.00     0.204 C 
HETATM    6  C   UNK     0     -46.165  -1.220  17.599  0.00  0.00     0.291 C 
ENDROOT
BRANCH   2   7
HETATM    7  C   UNK     0     -49.677  -1.015  16.493  0.00  0.00     0.205 C 
BRANCH   7   8
HETATM    8  O   UNK     0     -50.235   0.166  15.935  0.00  0.00    -0.356 OA
BRANCH   8   9
HETATM    9  C   UNK     0     -51.112  -0.132  14.854  0.00  0.00     0.291 C 
HETATM   10  O   UNK     0     -50.593   0.303  13.593  0.00  0.00    -0.351 OA
HETATM   11  C   UNK     0     -50.445   1.722  13.478  0.00  0.00     0.152 C 
HETATM   12  C   UNK     0     -51.792   2.435  13.671  0.00  0.00     0.178 C 
HETATM   13  C   UNK     0     -49.845   1.997  12.102  0.00  0.00     0.042 C 
HETATM   14  C   UNK     0     -52.423   2.013  14.998  0.00  0.00     0.183 C 
HETATM   15  C   UNK     0     -52.483   0.489  15.116  0.00  0.00     0.204 C 
BRANCH  12  16
HETATM   16  O   UNK     0     -51.603   3.846  13.698  0.00  0.00    -0.390 OA
HETATM   17  H   UNK     0     -51.295   4.093  14.587  0.00  0.00     0.210 HD
ENDBRANCH  12  16
BRANCH  14  18
HETATM   18  O   UNK     0     -53.738   2.558  15.086  0.00  0.00    -0.390 OA
HETATM   19  H   UNK     0     -54.309   2.045  14.488  0.00  0.00     0.210 HD
ENDBRANCH  14  18
BRANCH  15  20
HETATM   20  O   UNK     0     -53.392  -0.040  14.150  0.00  0.00    -0.388 OA
HETATM   21  H   UNK     0     -54.257  -0.140  14.583  0.00  0.00     0.210 HD
ENDBRANCH  15  20
ENDBRANCH   8   9
ENDBRANCH   7   8
ENDBRANCH   2   7
BRANCH   6  22
HETATM   22  O   UNK     0     -45.659  -1.577  18.886  0.00  0.00    -0.358 OA
BRANCH  22  23
HETATM   23  C   UNK     0     -45.252  -0.430  19.616  0.00  0.00     0.175 C 
BRANCH  23  24
HETATM   24  C   UNK     0     -43.831  -0.628  20.133  0.00  0.00     0.065 C 
BRANCH  24  25
HETATM   25  C   UNK     0     -42.962   0.584  19.903  0.00  0.00    -0.053 A 
HETATM   26  C   UNK     0     -41.842   0.802  20.705  0.00  0.00     0.046 A 
HETATM   27  C   UNK     0     -41.038   1.922  20.490  0.00  0.00     0.099 A 
HETATM   28  C   UNK     0     -41.355   2.823  19.474  0.00  0.00     0.098 A 
HETATM   29  C   UNK     0     -42.475   2.605  18.672  0.00  0.00     0.040 A 
HETATM   30  C   UNK     0     -43.279   1.486  18.886  0.00  0.00     0.010 A 
BRANCH  27  31
HETATM   31  O   UNK     0     -39.946   2.123  21.278  0.00  0.00    -0.358 OA
HETATM   32  H   UNK     0     -39.966   1.488  22.015  0.00  0.00     0.217 HD
ENDBRANCH  27  31
BRANCH  28  33
HETATM   33  O   UNK     0     -40.577   3.921  19.255  0.00  0.00    -0.358 OA
HETATM   34  H   UNK     0     -39.822   3.901  19.867  0.00  0.00     0.217 HD
ENDBRANCH  28  33
ENDBRANCH  24  25
ENDBRANCH  23  24
ENDBRANCH  22  23
ENDBRANCH   6  22
BRANCH   3  35
HETATM   35  O   UNK     0     -48.188  -1.493  13.983  0.00  0.00    -0.390 OA
HETATM   36  H   UNK     0     -49.104  -1.810  13.908  0.00  0.00     0.210 HD
ENDBRANCH   3  35
BRANCH   5  37
HETATM   37  O   UNK     0     -44.140  -1.909  16.522  0.00  0.00    -0.388 OA
HETATM   38  H   UNK     0     -43.728  -2.595  15.968  0.00  0.00     0.210 HD
ENDBRANCH   5  37
BRANCH   4  39
HETATM   39  O   UNK     0     -45.756  -3.020  14.322  0.00  0.00    -0.390 OA
HETATM   40  H   UNK     0     -45.118  -3.575  14.801  0.00  0.00     0.210 HD
ENDBRANCH   4  39
TORSDOF 15
ENDMDL
MODEL 3
REMARK VINA RESULT:      -6.5      3.678      5.914
REMARK  15 active torsions:
REMARK  status: ('A' for Active; 'I' for Inactive)
REMARK    1  A    between atoms: O_2  and  C_18 
REMARK    2  A    between atoms: O_2  and  C_22 
REMARK    3  A    between atoms: O_4  and  C_14 
REMARK    4  A    between atoms: O_5  and  C_21 
REMARK    5  A    between atoms: O_5  and  C_25 
REMARK    6  A    between atoms: O_6  and  C_15 
REMARK    7  A    between atoms: O_7  and  C_16 
REMARK    8  A    between atoms: O_8  and  C_17 
REMARK    9  A    between atoms: O_9  and  C_19 
REMARK   10  A    between atoms: O_10  and  C_20 
REMARK   11  A    between atoms: O_11  and  C_30 
REMARK   12  A    between atoms: O_12  and  C_32 
REMARK   13  A    between atoms: C_13  and  C_22 
REMARK   14  A    between atoms: C_25  and  C_26 
REMARK   15  A    between atoms: C_26  and  C_27 
ROOT
HETATM    1  O   UNK     0     -49.435   0.099  14.898  0.00  0.00    -0.348 OA
HETATM    2  C   UNK     0     -50.756  -0.129  14.404  0.00  0.00     0.180 C 
HETATM    3  C   UNK     0     -51.145  -1.594  14.610  0.00  0.00     0.180 C 
HETATM    4  C   UNK     0     -50.124  -2.525  13.955  0.00  0.00     0.183 C 
HETATM    5  C   UNK     0     -48.698  -2.150  14.355  0.00  0.00     0.204 C 
HETATM    6  C   UNK     0     -48.450  -0.651  14.191  0.00  0.00     0.291 C 
ENDROOT
BRANCH   2   7
HETATM    7  C   UNK     0     -51.695   0.816  15.147  0.00  0.00     0.205 C 
BRANCH   7   8
HETATM    8  O   UNK     0     -52.758   1.187  14.281  0.00  0.00    -0.356 OA
BRANCH   8   9
HETATM    9  C   UNK     0     -53.096   2.562  14.431  0.00  0.00     0.291 C 
HETATM   10  O   UNK     0     -54.257   2.925  13.677  0.00  0.00    -0.351 OA
HETATM   11  C   UNK     0     -54.096   2.807  12.259  0.00  0.00     0.152 C 
HETATM   12  C   UNK     0     -52.949   3.696  11.758  0.00  0.00     0.178 C 
HETATM   13  C   UNK     0     -55.432   3.187  11.626  0.00  0.00     0.042 C 
HETATM   14  C   UNK     0     -51.665   3.379  12.526  0.00  0.00     0.183 C 
HETATM   15  C   UNK     0     -51.903   3.431  14.037  0.00  0.00     0.204 C 
BRANCH  12  16
HETATM   16  O   UNK     0     -52.708   3.458  10.375  0.00  0.00    -0.390 OA
HETATM   17  H   UNK     0     -52.350   4.275   9.986  0.00  0.00     0.210 HD
ENDBRANCH  12  16
BRANCH  14  18
HETATM   18  O   UNK     0     -50.656   4.318  12.161  0.00  0.00    -0.390 OA
HETATM   19  H   UNK     0     -50.196   4.585  12.976  0.00  0.00     0.210 HD
ENDBRANCH  14  18
BRANCH  15  20
HETATM   20  O   UNK     0     -52.191   4.772  14.439  0.00  0.00    -0.388 OA
HETATM   21  H   UNK     0     -53.063   5.006  14.081  0.00  0.00     0.210 HD
ENDBRANCH  15  20
ENDBRANCH   8   9
ENDBRANCH   7   8
ENDBRANCH   2   7
BRANCH   6  22
HETATM   22  O   UNK     0     -47.154  -0.359  14.715  0.00  0.00    -0.358 OA
BRANCH  22  23
HETATM   23  C   UNK     0     -47.002  -0.872  16.029  0.00  0.00     0.175 C 
BRANCH  23  24
HETATM   24  C   UNK     0     -45.703  -1.665  16.125  0.00  0.00     0.065 C 
BRANCH  24  25
HETATM   25  C   UNK     0     -44.788  -1.141  17.204  0.00  0.00    -0.053 A 
HETATM   26  C   UNK     0     -44.796   0.215  17.529  0.00  0.00     0.046 A 
HETATM   27  C   UNK     0     -43.952   0.698  18.528  0.00  0.00     0.099 A 
HETATM   28  C   UNK     0     -43.099  -0.175  19.203  0.00  0.00     0.098 A 
HETATM   29  C   UNK     0     -43.091  -1.531  18.878  0.00  0.00     0.040 A 
HETATM   30  C   UNK     0     -43.935  -2.015  17.880  0.00  0.00     0.010 A 
BRANCH  27  31
HETATM   31  O   UNK     0     -43.970   2.025  18.838  0.00  0.00    -0.358 OA
HETATM   32  H   UNK     0     -44.086   2.539  18.020  0.00  0.00     0.217 HD
ENDBRANCH  27  31
BRANCH  28  33
HETATM   33  O   UNK     0     -42.269   0.286  20.181  0.00  0.00    -0.358 OA
HETATM   34  H   UNK     0     -42.780   0.841  20.794  0.00  0.00     0.217 HD
ENDBRANCH  28  33
ENDBRANCH  24  25
ENDBRANCH  23  24
ENDBRANCH  22  23
ENDBRANCH   6  22
BRANCH   3  35
HETATM   35  O   UNK     0     -52.430  -1.826  14.039  0.00  0.00    -0.390 OA
HETATM   36  H   UNK     0     -52.349  -1.741  13.073  0.00  0.00     0.210 HD
ENDBRANCH   3  35
BRANCH   5  37
HETATM   37  O   UNK     0     -47.773  -2.849  13.523  0.00  0.00    -0.388 OA
HETATM   38  H   UNK     0     -47.880  -3.802  13.688  0.00  0.00     0.210 HD
ENDBRANCH   5  37
BRANCH   4  39
HETATM   39  O   UNK     0     -50.404  -3.859  14.385  0.00  0.00    -0.390 OA
HETATM   40  H   UNK     0     -49.572  -4.258  14.694  0.00  0.00     0.210 HD
ENDBRANCH   4  39
TORSDOF 15
ENDMDL
MODEL 4
REMARK VINA RESULT:      -6.4      5.644      8.536
REMARK  15 active torsions:
REMARK  status: ('A' for Active; 'I' for Inactive)
REMARK    1  A    between atoms: O_2  and  C_18 
REMARK    2  A    between atoms: O_2  and  C_22 
REMARK    3  A    between atoms: O_4  and  C_14 
REMARK    4  A    between atoms: O_5  and  C_21 
REMARK    5  A    between atoms: O_5  and  C_25 
REMARK    6  A    between atoms: O_6  and  C_15 
REMARK    7  A    between atoms: O_7  and  C_16 
REMARK    8  A    between atoms: O_8  and  C_17 
REMARK    9  A    between atoms: O_9  and  C_19 
REMARK   10  A    between atoms: O_10  and  C_20 
REMARK   11  A    between atoms: O_11  and  C_30 
REMARK   12  A    between atoms: O_12  and  C_32 
REMARK   13  A    between atoms: C_13  and  C_22 
REMARK   14  A    between atoms: C_25  and  C_26 
REMARK   15  A    between atoms: C_26  and  C_27 
ROOT
HETATM    1  O   UNK     0     -48.205  -5.700  18.459  0.00  0.00    -0.348 OA
HETATM    2  C   UNK     0     -48.915  -5.452  17.243  0.00  0.00     0.180 C 
HETATM    3  C   UNK     0     -50.293  -6.115  17.299  0.00  0.00     0.180 C 
HETATM    4  C   UNK     0     -50.165  -7.611  17.589  0.00  0.00     0.183 C 
HETATM    5  C   UNK     0     -49.252  -7.865  18.788  0.00  0.00     0.204 C 
HETATM    6  C   UNK     0     -47.944  -7.086  18.667  0.00  0.00     0.291 C 
ENDROOT
BRANCH   2   7
HETATM    7  C   UNK     0     -49.021  -3.940  17.072  0.00  0.00     0.205 C 
BRANCH   7   8
HETATM    8  O   UNK     0     -47.876  -3.328  17.648  0.00  0.00    -0.356 OA
BRANCH   8   9
HETATM    9  C   UNK     0     -46.753  -3.400  16.776  0.00  0.00     0.291 C 
HETATM   10  O   UNK     0     -45.538  -2.995  17.415  0.00  0.00    -0.351 OA
HETATM   11  C   UNK     0     -45.517  -1.623  17.822  0.00  0.00     0.152 C 
HETATM   12  C   UNK     0     -45.715  -0.689  16.620  0.00  0.00     0.178 C 
HETATM   13  C   UNK     0     -44.179  -1.385  18.518  0.00  0.00     0.042 C 
HETATM   14  C   UNK     0     -46.993  -1.063  15.869  0.00  0.00     0.183 C 
HETATM   15  C   UNK     0     -47.013  -2.554  15.530  0.00  0.00     0.204 C 
BRANCH  12  16
HETATM   16  O   UNK     0     -45.836   0.661  17.058  0.00  0.00    -0.390 OA
HETATM   17  H   UNK     0     -46.459   0.681  17.806  0.00  0.00     0.210 HD
ENDBRANCH  12  16
BRANCH  14  18
HETATM   18  O   UNK     0     -47.076  -0.292  14.672  0.00  0.00    -0.390 OA
HETATM   19  H   UNK     0     -46.212  -0.345  14.228  0.00  0.00     0.210 HD
ENDBRANCH  14  18
BRANCH  15  20
HETATM   20  O   UNK     0     -45.988  -2.853  14.581  0.00  0.00    -0.388 OA
HETATM   21  H   UNK     0     -46.049  -2.196  13.866  0.00  0.00     0.210 HD
ENDBRANCH  15  20
ENDBRANCH   8   9
ENDBRANCH   7   8
ENDBRANCH   2   7
BRANCH   6  22
HETATM   22  O   UNK     0     -47.213  -7.262  19.881  0.00  0.00    -0.358 OA
BRANCH  22  23
HETATM   23  C   UNK     0     -46.122  -8.152  19.702  0.00  0.00     0.175 C 
BRANCH  23  24
HETATM   24  C   UNK     0     -45.407  -8.362  21.032  0.00  0.00     0.065 C 
BRANCH  24  25
HETATM   25  C   UNK     0     -44.043  -8.984  20.859  0.00  0.00    -0.053 A 
HETATM   26  C   UNK     0     -43.722  -9.642  19.672  0.00  0.00     0.046 A 
HETATM   27  C   UNK     0     -42.461 -10.216  19.512  0.00  0.00     0.099 A 
HETATM   28  C   UNK     0     -41.521 -10.132  20.539  0.00  0.00     0.098 A 
HETATM   29  C   UNK     0     -41.842  -9.474  21.726  0.00  0.00     0.040 A 
HETATM   30  C   UNK     0     -43.103  -8.900  21.887  0.00  0.00     0.010 A 
BRANCH  27  31
HETATM   31  O   UNK     0     -42.158 -10.854  18.347  0.00  0.00    -0.358 OA
HETATM   32  H   UNK     0     -41.311 -10.513  18.010  0.00  0.00     0.217 HD
ENDBRANCH  27  31
BRANCH  28  33
HETATM   33  O   UNK     0     -40.285 -10.689  20.394  0.00  0.00    -0.358 OA
HETATM   34  H   UNK     0     -40.266 -11.542  20.860  0.00  0.00     0.217 HD
ENDBRANCH  28  33
ENDBRANCH  24  25
ENDBRANCH  23  24
ENDBRANCH  22  23
ENDBRANCH   6  22
BRANCH   3  35
HETATM   35  O   UNK     0     -50.955  -5.931  16.051  0.00  0.00    -0.390 OA
HETATM   36  H   UNK     0     -51.903  -5.807  16.229  0.00  0.00     0.210 HD
ENDBRANCH   3  35
BRANCH   5  37
HETATM   37  O   UNK     0     -48.939  -9.257  18.858  0.00  0.00    -0.388 OA
HETATM   38  H   UNK     0     -49.053  -9.546  19.780  0.00  0.00     0.210 HD
ENDBRANCH   5  37
BRANCH   4  39
HETATM   39  O   UNK     0     -51.471  -8.120  17.868  0.00  0.00    -0.390 OA
HETATM   40  H   UNK     0     -52.106  -7.388  17.780  0.00  0.00     0.210 HD
ENDBRANCH   4  39
TORSDOF 15
ENDMDL
MODEL 5
REMARK VINA RESULT:      -6.4      3.230      5.032
REMARK  15 active torsions:
REMARK  status: ('A' for Active; 'I' for Inactive)
REMARK    1  A    between atoms: O_2  and  C_18 
REMARK    2  A    between atoms: O_2  and  C_22 
REMARK    3  A    between atoms: O_4  and  C_14 
REMARK    4  A    between atoms: O_5  and  C_21 
REMARK    5  A    between atoms: O_5  and  C_25 
REMARK    6  A    between atoms: O_6  and  C_15 
REMARK    7  A    between atoms: O_7  and  C_16 
REMARK    8  A    between atoms: O_8  and  C_17 
REMARK    9  A    between atoms: O_9  and  C_19 
REMARK   10  A    between atoms: O_10  and  C_20 
REMARK   11  A    between atoms: O_11  and  C_30 
REMARK   12  A    between atoms: O_12  and  C_32 
REMARK   13  A    between atoms: C_13  and  C_22 
REMARK   14  A    between atoms: C_25  and  C_26 
REMARK   15  A    between atoms: C_26  and  C_27 
ROOT
HETATM    1  O   UNK     0     -48.961  -1.091  16.693  0.00  0.00    -0.348 OA
HETATM    2  C   UNK     0     -49.709  -0.498  15.630  0.00  0.00     0.180 C 
HETATM    3  C   UNK     0     -49.806  -1.472  14.453  0.00  0.00     0.180 C 
HETATM    4  C   UNK     0     -48.415  -1.910  13.995  0.00  0.00     0.183 C 
HETATM    5  C   UNK     0     -47.563  -2.372  15.176  0.00  0.00     0.204 C 
HETATM    6  C   UNK     0     -47.611  -1.365  16.324  0.00  0.00     0.291 C 
ENDROOT
BRANCH   2   7
HETATM    7  C   UNK     0     -51.085  -0.138  16.180  0.00  0.00     0.205 C 
BRANCH   7   8
HETATM    8  O   UNK     0     -51.381   1.210  15.841  0.00  0.00    -0.356 OA
BRANCH   8   9
HETATM    9  C   UNK     0     -52.533   1.297  15.011  0.00  0.00     0.291 C 
HETATM   10  O   UNK     0     -52.213   1.679  13.669  0.00  0.00    -0.351 OA
HETATM   11  C   UNK     0     -51.656   2.993  13.551  0.00  0.00     0.152 C 
HETATM   12  C   UNK     0     -52.625   4.053  14.092  0.00  0.00     0.178 C 
HETATM   13  C   UNK     0     -51.336   3.210  12.074  0.00  0.00     0.042 C 
HETATM   14  C   UNK     0     -53.030   3.711  15.525  0.00  0.00     0.183 C 
HETATM   15  C   UNK     0     -53.538   2.271  15.623  0.00  0.00     0.204 C 
BRANCH  12  16
HETATM   16  O   UNK     0     -52.000   5.334  14.100  0.00  0.00    -0.390 OA
HETATM   17  H   UNK     0     -51.330   5.338  14.805  0.00  0.00     0.210 HD
ENDBRANCH  12  16
BRANCH  14  18
HETATM   18  O   UNK     0     -54.048   4.614  15.953  0.00  0.00    -0.390 OA
HETATM   19  H   UNK     0     -53.984   5.411  15.400  0.00  0.00     0.210 HD
ENDBRANCH  14  18
BRANCH  15  20
HETATM   20  O   UNK     0     -54.766   2.138  14.905  0.00  0.00    -0.388 OA
HETATM   21  H   UNK     0     -54.982   1.191  14.865  0.00  0.00     0.210 HD
ENDBRANCH  15  20
ENDBRANCH   8   9
ENDBRANCH   7   8
ENDBRANCH   2   7
BRANCH   6  22
HETATM   22  O   UNK     0     -46.914  -1.930  17.435  0.00  0.00    -0.358 OA
BRANCH  22  23
HETATM   23  C   UNK     0     -46.519  -0.929  18.360  0.00  0.00     0.175 C 
BRANCH  23  24
HETATM   24  C   UNK     0     -45.605   0.077  17.670  0.00  0.00     0.065 C 
BRANCH  24  25
HETATM   25  C   UNK     0     -44.355   0.358  18.466  0.00  0.00    -0.053 A 
HETATM   26  C   UNK     0     -43.759   1.617  18.408  0.00  0.00     0.046 A 
HETATM   27  C   UNK     0     -42.604   1.878  19.147  0.00  0.00     0.099 A 
HETATM   28  C   UNK     0     -42.046   0.878  19.942  0.00  0.00     0.098 A 
HETATM   29  C   UNK     0     -42.641  -0.382  20.001  0.00  0.00     0.040 A 
HETATM   30  C   UNK     0     -43.796  -0.642  19.263  0.00  0.00     0.010 A 
BRANCH  27  31
HETATM   31  O   UNK     0     -42.032   3.112  19.083  0.00  0.00    -0.358 OA
HETATM   32  H   UNK     0     -42.694   3.752  18.766  0.00  0.00     0.217 HD
ENDBRANCH  27  31
BRANCH  28  33
HETATM   33  O   UNK     0     -40.918   1.120  20.668  0.00  0.00    -0.358 OA
HETATM   34  H   UNK     0     -40.975   2.011  21.053  0.00  0.00     0.217 HD
ENDBRANCH  28  33
ENDBRANCH  24  25
ENDBRANCH  23  24
ENDBRANCH  22  23
ENDBRANCH   6  22
BRANCH   3  35
HETATM   35  O   UNK     0     -50.482  -0.838  13.371  0.00  0.00    -0.390 OA
HETATM   36  H   UNK     0     -51.063  -1.496  12.952  0.00  0.00     0.210 HD
ENDBRANCH   3  35
BRANCH   5  37
HETATM   37  O   UNK     0     -46.205  -2.508  14.758  0.00  0.00    -0.388 OA
HETATM   38  H   UNK     0     -46.202  -2.915  13.874  0.00  0.00     0.210 HD
ENDBRANCH   5  37
BRANCH   4  39
HETATM   39  O   UNK     0     -48.574  -2.989  13.071  0.00  0.00    -0.390 OA
HETATM   40  H   UNK     0     -47.955  -2.850  12.334  0.00  0.00     0.210 HD
ENDBRANCH   4  39
TORSDOF 15
ENDMDL
MODEL 6
REMARK VINA RESULT:      -6.4      1.306      1.558
REMARK  15 active torsions:
REMARK  status: ('A' for Active; 'I' for Inactive)
REMARK    1  A    between atoms: O_2  and  C_18 
REMARK    2  A    between atoms: O_2  and  C_22 
REMARK    3  A    between atoms: O_4  and  C_14 
REMARK    4  A    between atoms: O_5  and  C_21 
REMARK    5  A    between atoms: O_5  and  C_25 
REMARK    6  A    between atoms: O_6  and  C_15 
REMARK    7  A    between atoms: O_7  and  C_16 
REMARK    8  A    between atoms: O_8  and  C_17 
REMARK    9  A    between atoms: O_9  and  C_19 
REMARK   10  A    between atoms: O_10  and  C_20 
REMARK   11  A    between atoms: O_11  and  C_30 
REMARK   12  A    between atoms: O_12  and  C_32 
REMARK   13  A    between atoms: C_13  and  C_22 
REMARK   14  A    between atoms: C_25  and  C_26 
REMARK   15  A    between atoms: C_26  and  C_27 
ROOT
HETATM    1  O   UNK     0     -47.219  -1.075  17.729  0.00  0.00    -0.348 OA
HETATM    2  C   UNK     0     -47.758  -0.640  16.480  0.00  0.00     0.180 C 
HETATM    3  C   UNK     0     -47.363  -1.619  15.372  0.00  0.00     0.180 C 
HETATM    4  C   UNK     0     -45.844  -1.785  15.310  0.00  0.00     0.183 C 
HETATM    5  C   UNK     0     -45.262  -2.071  16.694  0.00  0.00     0.204 C 
HETATM    6  C   UNK     0     -45.793  -1.087  17.735  0.00  0.00     0.291 C 
ENDROOT
BRANCH   2   7
HETATM    7  C   UNK     0     -49.272  -0.547  16.639  0.00  0.00     0.205 C 
BRANCH   7   8
HETATM    8  O   UNK     0     -49.725  -1.653  17.405  0.00  0.00    -0.356 OA
BRANCH   8   9
HETATM    9  C   UNK     0     -50.975  -2.139  16.929  0.00  0.00     0.291 C 
HETATM   10  O   UNK     0     -51.580  -3.070  17.833  0.00  0.00    -0.351 OA
HETATM   11  C   UNK     0     -50.835  -4.280  18.014  0.00  0.00     0.152 C 
HETATM   12  C   UNK     0     -50.649  -5.017  16.680  0.00  0.00     0.178 C 
HETATM   13  C   UNK     0     -51.597  -5.124  19.033  0.00  0.00     0.042 C 
HETATM   14  C   UNK     0     -50.016  -4.084  15.648  0.00  0.00     0.183 C 
HETATM   15  C   UNK     0     -50.792  -2.769  15.550  0.00  0.00     0.204 C 
BRANCH  12  16
HETATM   16  O   UNK     0     -49.786  -6.138  16.853  0.00  0.00    -0.390 OA
HETATM   17  H   UNK     0     -49.854  -6.696  16.059  0.00  0.00     0.210 HD
ENDBRANCH  12  16
BRANCH  14  18
HETATM   18  O   UNK     0     -49.996  -4.732  14.379  0.00  0.00    -0.390 OA
HETATM   19  H   UNK     0     -49.310  -5.421  14.412  0.00  0.00     0.210 HD
ENDBRANCH  14  18
BRANCH  15  20
HETATM   20  O   UNK     0     -52.091  -3.010  15.005  0.00  0.00    -0.388 OA
HETATM   21  H   UNK     0     -52.738  -2.580  15.589  0.00  0.00     0.210 HD
ENDBRANCH  15  20
ENDBRANCH   8   9
ENDBRANCH   7   8
ENDBRANCH   2   7
BRANCH   6  22
HETATM   22  O   UNK     0     -45.320  -1.505  19.016  0.00  0.00    -0.358 OA
BRANCH  22  23
HETATM   23  C   UNK     0     -44.918  -0.396  19.805  0.00  0.00     0.175 C 
BRANCH  23  24
HETATM   24  C   UNK     0     -43.455  -0.551  20.202  0.00  0.00     0.065 C 
BRANCH  24  25
HETATM   25  C   UNK     0     -42.657   0.707  19.958  0.00  0.00    -0.053 A 
HETATM   26  C   UNK     0     -41.557   1.003  20.763  0.00  0.00     0.046 A 
HETATM   27  C   UNK     0     -40.819   2.164  20.535  0.00  0.00     0.099 A 
HETATM   28  C   UNK     0     -41.182   3.030  19.504  0.00  0.00     0.098 A 
HETATM   29  C   UNK     0     -42.281   2.734  18.699  0.00  0.00     0.040 A 
HETATM   30  C   UNK     0     -43.020   1.573  18.925  0.00  0.00     0.010 A 
BRANCH  27  31
HETATM   31  O   UNK     0     -39.746   2.442  21.326  0.00  0.00    -0.358 OA
HETATM   32  H   UNK     0     -39.194   3.112  20.888  0.00  0.00     0.217 HD
ENDBRANCH  27  31
BRANCH  28  33
HETATM   33  O   UNK     0     -40.468   4.168  19.272  0.00  0.00    -0.358 OA
HETATM   34  H   UNK     0     -40.499   4.373  18.321  0.00  0.00     0.217 HD
ENDBRANCH  28  33
ENDBRANCH  24  25
ENDBRANCH  23  24
ENDBRANCH  22  23
ENDBRANCH   6  22
BRANCH   3  35
HETATM   35  O   UNK     0     -47.836  -1.129  14.120  0.00  0.00    -0.390 OA
HETATM   36  H   UNK     0     -48.762  -1.406  14.020  0.00  0.00     0.210 HD
ENDBRANCH   3  35
BRANCH   5  37
HETATM   37  O   UNK     0     -43.841  -1.947  16.645  0.00  0.00    -0.388 OA
HETATM   38  H   UNK     0     -43.590  -1.152  17.147  0.00  0.00     0.210 HD
ENDBRANCH   5  37
BRANCH   4  39
HETATM   39  O   UNK     0     -45.555  -2.877  14.436  0.00  0.00    -0.390 OA
HETATM   40  H   UNK     0     -46.397  -3.227  14.098  0.00  0.00     0.210 HD
ENDBRANCH   4  39
TORSDOF 15
ENDMDL
MODEL 7
REMARK VINA RESULT:      -6.3      3.129      8.718
REMARK  15 active torsions:
REMARK  status: ('A' for Active; 'I' for Inactive)
REMARK    1  A    between atoms: O_2  and  C_18 
REMARK    2  A    between atoms: O_2  and  C_22 
REMARK    3  A    between atoms: O_4  and  C_14 
REMARK    4  A    between atoms: O_5  and  C_21 
REMARK    5  A    between atoms: O_5  and  C_25 
REMARK    6  A    between atoms: O_6  and  C_15 
REMARK    7  A    between atoms: O_7  and  C_16 
REMARK    8  A    between atoms: O_8  and  C_17 
REMARK    9  A    between atoms: O_9  and  C_19 
REMARK   10  A    between atoms: O_10  and  C_20 
REMARK   11  A    between atoms: O_11  and  C_30 
REMARK   12  A    between atoms: O_12  and  C_32 
REMARK   13  A    between atoms: C_13  and  C_22 
REMARK   14  A    between atoms: C_25  and  C_26 
REMARK   15  A    between atoms: C_26  and  C_27 
ROOT
HETATM    1  O   UNK     0     -51.038  -0.255  18.150  0.00  0.00    -0.348 OA
HETATM    2  C   UNK     0     -50.187   0.887  18.041  0.00  0.00     0.180 C 
HETATM    3  C   UNK     0     -50.631   1.964  19.033  0.00  0.00     0.180 C 
HETATM    4  C   UNK     0     -52.101   2.328  18.819  0.00  0.00     0.183 C 
HETATM    5  C   UNK     0     -52.976   1.076  18.756  0.00  0.00     0.204 C 
HETATM    6  C   UNK     0     -52.391   0.035  17.802  0.00  0.00     0.291 C 
ENDROOT
BRANCH   2   7
HETATM    7  C   UNK     0     -48.759   0.424  18.311  0.00  0.00     0.205 C 
BRANCH   7   8
HETATM    8  O   UNK     0     -48.339  -0.422  17.250  0.00  0.00    -0.356 OA
BRANCH   8   9
HETATM    9  C   UNK     0     -47.535  -1.495  17.727  0.00  0.00     0.291 C 
HETATM   10  O   UNK     0     -46.274  -1.049  18.236  0.00  0.00    -0.351 OA
HETATM   11  C   UNK     0     -45.424  -0.450  17.252  0.00  0.00     0.152 C 
HETATM   12  C   UNK     0     -45.117  -1.434  16.115  0.00  0.00     0.178 C 
HETATM   13  C   UNK     0     -44.157   0.002  17.975  0.00  0.00     0.042 C 
HETATM   14  C   UNK     0     -46.419  -1.971  15.521  0.00  0.00     0.183 C 
HETATM   15  C   UNK     0     -47.334  -2.523  16.615  0.00  0.00     0.204 C 
BRANCH  12  16
HETATM   16  O   UNK     0     -44.393  -0.779  15.077  0.00  0.00    -0.390 OA
HETATM   17  H   UNK     0     -45.035  -0.391  14.459  0.00  0.00     0.210 HD
ENDBRANCH  12  16
BRANCH  14  18
HETATM   18  O   UNK     0     -46.116  -2.998  14.578  0.00  0.00    -0.390 OA
HETATM   19  H   UNK     0     -46.842  -3.645  14.607  0.00  0.00     0.210 HD
ENDBRANCH  14  18
BRANCH  15  20
HETATM   20  O   UNK     0     -46.748  -3.687  17.200  0.00  0.00    -0.388 OA
HETATM   21  H   UNK     0     -46.961  -3.679  18.148  0.00  0.00     0.210 HD
ENDBRANCH  15  20
ENDBRANCH   8   9
ENDBRANCH   7   8
ENDBRANCH   2   7
BRANCH   6  22
HETATM   22  O   UNK     0     -53.180  -1.150  17.906  0.00  0.00    -0.358 OA
BRANCH  22  23
HETATM   23  C   UNK     0     -53.618  -1.591  16.631  0.00  0.00     0.175 C 
BRANCH  23  24
HETATM   24  C   UNK     0     -53.070  -2.987  16.354  0.00  0.00     0.065 C 
BRANCH  24  25
HETATM   25  C   UNK     0     -51.870  -2.961  15.438  0.00  0.00    -0.053 A 
HETATM   26  C   UNK     0     -51.572  -1.809  14.711  0.00  0.00     0.046 A 
HETATM   27  C   UNK     0     -50.462  -1.786  13.866  0.00  0.00     0.099 A 
HETATM   28  C   UNK     0     -49.651  -2.915  13.749  0.00  0.00     0.098 A 
HETATM   29  C   UNK     0     -49.950  -4.066  14.476  0.00  0.00     0.040 A 
HETATM   30  C   UNK     0     -51.059  -4.090  15.321  0.00  0.00     0.010 A 
BRANCH  27  31
HETATM   31  O   UNK     0     -50.179  -0.654  13.163  0.00  0.00    -0.358 OA
HETATM   32  H   UNK     0     -49.419  -0.825  12.581  0.00  0.00     0.217 HD
ENDBRANCH  27  31
BRANCH  28  33
HETATM   33  O   UNK     0     -48.564  -2.903  12.927  0.00  0.00    -0.358 OA
HETATM   34  H   UNK     0     -48.745  -3.468  12.156  0.00  0.00     0.217 HD
ENDBRANCH  28  33
ENDBRANCH  24  25
ENDBRANCH  23  24
ENDBRANCH  22  23
ENDBRANCH   6  22
BRANCH   3  35
HETATM   35  O   UNK     0     -49.827   3.127  18.856  0.00  0.00    -0.390 OA
HETATM   36  H   UNK     0     -48.946   2.943  19.225  0.00  0.00     0.210 HD
ENDBRANCH   3  35
BRANCH   5  37
HETATM   37  O   UNK     0     -54.277   1.431  18.286  0.00  0.00    -0.388 OA
HETATM   38  H   UNK     0     -54.794   1.751  19.045  0.00  0.00     0.210 HD
ENDBRANCH   5  37
BRANCH   4  39
HETATM   39  O   UNK     0     -52.518   3.145  19.914  0.00  0.00    -0.390 OA
HETATM   40  H   UNK     0     -53.488   3.108  19.967  0.00  0.00     0.210 HD
ENDBRANCH   4  39
TORSDOF 15
ENDMDL
MODEL 8
REMARK VINA RESULT:      -6.3      3.306      6.119
REMARK  15 active torsions:
REMARK  status: ('A' for Active; 'I' for Inactive)
REMARK    1  A    between atoms: O_2  and  C_18 
REMARK    2  A    between atoms: O_2  and  C_22 
REMARK    3  A    between atoms: O_4  and  C_14 
REMARK    4  A    between atoms: O_5  and  C_21 
REMARK    5  A    between atoms: O_5  and  C_25 
REMARK    6  A    between atoms: O_6  and  C_15 
REMARK    7  A    between atoms: O_7  and  C_16 
REMARK    8  A    between atoms: O_8  and  C_17 
REMARK    9  A    between atoms: O_9  and  C_19 
REMARK   10  A    between atoms: O_10  and  C_20 
REMARK   11  A    between atoms: O_11  and  C_30 
REMARK   12  A    between atoms: O_12  and  C_32 
REMARK   13  A    between atoms: C_13  and  C_22 
REMARK   14  A    between atoms: C_25  and  C_26 
REMARK   15  A    between atoms: C_26  and  C_27 
ROOT
HETATM    1  O   UNK     0     -48.874  -1.986  17.160  0.00  0.00    -0.348 OA
HETATM    2  C   UNK     0     -49.220  -3.274  16.646  0.00  0.00     0.180 C 
HETATM    3  C   UNK     0     -49.359  -3.208  15.124  0.00  0.00     0.180 C 
HETATM    4  C   UNK     0     -50.376  -2.141  14.717  0.00  0.00     0.183 C 
HETATM    5  C   UNK     0     -50.096  -0.814  15.421  0.00  0.00     0.204 C 
HETATM    6  C   UNK     0     -49.888  -1.012  16.921  0.00  0.00     0.291 C 
ENDROOT
BRANCH   2   7
HETATM    7  C   UNK     0     -48.126  -4.248  17.072  0.00  0.00     0.205 C 
BRANCH   7   8
HETATM    8  O   UNK     0     -48.653  -5.567  17.064  0.00  0.00    -0.356 OA
BRANCH   8   9
HETATM    9  C   UNK     0     -49.424  -5.827  18.231  0.00  0.00     0.291 C 
HETATM   10  O   UNK     0     -48.613  -6.189  19.353  0.00  0.00    -0.351 OA
HETATM   11  C   UNK     0     -47.895  -7.417  19.186  0.00  0.00     0.152 C 
HETATM   12  C   UNK     0     -48.857  -8.588  18.941  0.00  0.00     0.178 C 
HETATM   13  C   UNK     0     -47.058  -7.618  20.447  0.00  0.00     0.042 C 
HETATM   14  C   UNK     0     -49.774  -8.276  17.759  0.00  0.00     0.183 C 
HETATM   15  C   UNK     0     -50.454  -6.917  17.937  0.00  0.00     0.204 C 
BRANCH  12  16
HETATM   16  O   UNK     0     -48.124  -9.771  18.634  0.00  0.00    -0.390 OA
HETATM   17  H   UNK     0     -47.399  -9.530  18.033  0.00  0.00     0.210 HD
ENDBRANCH  12  16
BRANCH  14  18
HETATM   18  O   UNK     0     -50.760  -9.300  17.646  0.00  0.00    -0.390 OA
HETATM   19  H   UNK     0     -51.632  -8.874  17.701  0.00  0.00     0.210 HD
ENDBRANCH  14  18
BRANCH  15  20
HETATM   20  O   UNK     0     -51.362  -6.966  19.038  0.00  0.00    -0.388 OA
HETATM   21  H   UNK     0     -50.849  -7.196  19.832  0.00  0.00     0.210 HD
ENDBRANCH  15  20
ENDBRANCH   8   9
ENDBRANCH   7   8
ENDBRANCH   2   7
BRANCH   6  22
HETATM   22  O   UNK     0     -49.493   0.241  17.480  0.00  0.00    -0.358 OA
BRANCH  22  23
HETATM   23  C   UNK     0     -48.613   0.062  18.579  0.00  0.00     0.175 C 
BRANCH  23  24
HETATM   24  C   UNK     0     -47.344   0.878  18.359  0.00  0.00     0.065 C 
BRANCH  24  25
HETATM   25  C   UNK     0     -46.178   0.021  17.931  0.00  0.00    -0.053 A 
HETATM   26  C   UNK     0     -45.954  -0.227  16.578  0.00  0.00     0.046 A 
HETATM   27  C   UNK     0     -44.875  -1.018  16.183  0.00  0.00     0.099 A 
HETATM   28  C   UNK     0     -44.019  -1.560  17.142  0.00  0.00     0.098 A 
HETATM   29  C   UNK     0     -44.243  -1.311  18.495  0.00  0.00     0.040 A 
HETATM   30  C   UNK     0     -45.322  -0.520  18.891  0.00  0.00     0.010 A 
BRANCH  27  31
HETATM   31  O   UNK     0     -44.665  -1.252  14.857  0.00  0.00    -0.358 OA
HETATM   32  H   UNK     0     -43.927  -1.878  14.759  0.00  0.00     0.217 HD
ENDBRANCH  27  31
BRANCH  28  33
HETATM   33  O   UNK     0     -42.961  -2.333  16.768  0.00  0.00    -0.358 OA
HETATM   34  H   UNK     0     -43.293  -3.121  16.304  0.00  0.00     0.217 HD
ENDBRANCH  28  33
ENDBRANCH  24  25
ENDBRANCH  23  24
ENDBRANCH  22  23
ENDBRANCH   6  22
BRANCH   3  35
HETATM   35  O   UNK     0     -49.784  -4.477  14.635  0.00  0.00    -0.390 OA
HETATM   36  H   UNK     0     -50.745  -4.544  14.770  0.00  0.00     0.210 HD
ENDBRANCH   3  35
BRANCH   5  37
HETATM   37  O   UNK     0     -51.207   0.064  15.236  0.00  0.00    -0.388 OA
HETATM   38  H   UNK     0     -52.017  -0.420  15.475  0.00  0.00     0.210 HD
ENDBRANCH   5  37
BRANCH   4  39
HETATM   39  O   UNK     0     -50.284  -1.959  13.303  0.00  0.00    -0.390 OA
HETATM   40  H   UNK     0     -49.427  -1.543  13.106  0.00  0.00     0.210 HD
ENDBRANCH   4  39
TORSDOF 15
ENDMDL
MODEL 9
REMARK VINA RESULT:      -6.3      2.826      3.557
REMARK  15 active torsions:
REMARK  status: ('A' for Active; 'I' for Inactive)
REMARK    1  A    between atoms: O_2  and  C_18 
REMARK    2  A    between atoms: O_2  and  C_22 
REMARK    3  A    between atoms: O_4  and  C_14 
REMARK    4  A    between atoms: O_5  and  C_21 
REMARK    5  A    between atoms: O_5  and  C_25 
REMARK    6  A    between atoms: O_6  and  C_15 
REMARK    7  A    between atoms: O_7  and  C_16 
REMARK    8  A    between atoms: O_8  and  C_17 
REMARK    9  A    between atoms: O_9  and  C_19 
REMARK   10  A    between atoms: O_10  and  C_20 
REMARK   11  A    between atoms: O_11  and  C_30 
REMARK   12  A    between atoms: O_12  and  C_32 
REMARK   13  A    between atoms: C_13  and  C_22 
REMARK   14  A    between atoms: C_25  and  C_26 
REMARK   15  A    between atoms: C_26  and  C_27 
ROOT
HETATM    1  O   UNK     0     -47.140  -2.295  17.834  0.00  0.00    -0.348 OA
HETATM    2  C   UNK     0     -47.897  -2.228  16.624  0.00  0.00     0.180 C 
HETATM    3  C   UNK     0     -47.038  -2.692  15.445  0.00  0.00     0.180 C 
HETATM    4  C   UNK     0     -45.750  -1.874  15.356  0.00  0.00     0.183 C 
HETATM    5  C   UNK     0     -45.044  -1.805  16.710  0.00  0.00     0.204 C 
HETATM    6  C   UNK     0     -46.015  -1.418  17.824  0.00  0.00     0.291 C 
ENDROOT
BRANCH   2   7
HETATM    7  C   UNK     0     -49.131  -3.105  16.805  0.00  0.00     0.205 C 
BRANCH   7   8
HETATM    8  O   UNK     0     -48.718  -4.448  17.015  0.00  0.00    -0.356 OA
BRANCH   8   9
HETATM    9  C   UNK     0     -49.097  -4.913  18.306  0.00  0.00     0.291 C 
HETATM   10  O   UNK     0     -48.170  -5.865  18.838  0.00  0.00    -0.351 OA
HETATM   11  C   UNK     0     -48.087  -7.084  18.090  0.00  0.00     0.152 C 
HETATM   12  C   UNK     0     -49.451  -7.785  18.026  0.00  0.00     0.178 C 
HETATM   13  C   UNK     0     -47.029  -7.951  18.769  0.00  0.00     0.042 C 
HETATM   14  C   UNK     0     -50.508  -6.827  17.477  0.00  0.00     0.183 C 
HETATM   15  C   UNK     0     -50.504  -5.506  18.248  0.00  0.00     0.204 C 
BRANCH  12  16
HETATM   16  O   UNK     0     -49.384  -8.915  17.161  0.00  0.00    -0.390 OA
HETATM   17  H   UNK     0     -50.293  -9.212  16.981  0.00  0.00     0.210 HD
ENDBRANCH  12  16
BRANCH  14  18
HETATM   18  O   UNK     0     -51.792  -7.440  17.572  0.00  0.00    -0.390 OA
HETATM   19  H   UNK     0     -52.446  -6.732  17.700  0.00  0.00     0.210 HD
ENDBRANCH  14  18
BRANCH  15  20
HETATM   20  O   UNK     0     -50.940  -5.724  19.591  0.00  0.00    -0.388 OA
HETATM   21  H   UNK     0     -50.168  -5.616  20.172  0.00  0.00     0.210 HD
ENDBRANCH  15  20
ENDBRANCH   8   9
ENDBRANCH   7   8
ENDBRANCH   2   7
BRANCH   6  22
HETATM   22  O   UNK     0     -45.319  -1.514  19.067  0.00  0.00    -0.358 OA
BRANCH  22  23
HETATM   23  C   UNK     0     -45.148  -0.237  19.663  0.00  0.00     0.175 C 
BRANCH  23  24
HETATM   24  C   UNK     0     -43.924  -0.254  20.572  0.00  0.00     0.065 C 
BRANCH  24  25
HETATM   25  C   UNK     0     -42.933   0.828  20.221  0.00  0.00    -0.053 A 
HETATM   26  C   UNK     0     -41.762   0.970  20.964  0.00  0.00     0.046 A 
HETATM   27  C   UNK     0     -40.844   1.969  20.637  0.00  0.00     0.099 A 
HETATM   28  C   UNK     0     -41.100   2.827  19.568  0.00  0.00     0.098 A 
HETATM   29  C   UNK     0     -42.271   2.686  18.825  0.00  0.00     0.040 A 
HETATM   30  C   UNK     0     -43.188   1.686  19.150  0.00  0.00     0.010 A 
BRANCH  27  31
HETATM   31  O   UNK     0     -39.703   2.096  21.370  0.00  0.00    -0.358 OA
HETATM   32  H   UNK     0     -38.950   2.210  20.765  0.00  0.00     0.217 HD
ENDBRANCH  27  31
BRANCH  28  33
HETATM   33  O   UNK     0     -40.211   3.807  19.239  0.00  0.00    -0.358 OA
HETATM   34  H   UNK     0     -39.859   3.630  18.350  0.00  0.00     0.217 HD
ENDBRANCH  28  33
ENDBRANCH  24  25
ENDBRANCH  23  24
ENDBRANCH  22  23
ENDBRANCH   6  22
BRANCH   3  35
HETATM   35  O   UNK     0     -47.778  -2.542  14.237  0.00  0.00    -0.390 OA
HETATM   36  H   UNK     0     -47.577  -3.302  13.665  0.00  0.00     0.210 HD
ENDBRANCH   3  35
BRANCH   5  37
HETATM   37  O   UNK     0     -44.011  -0.821  16.656  0.00  0.00    -0.388 OA
HETATM   38  H   UNK     0     -44.233  -0.116  17.288  0.00  0.00     0.210 HD
ENDBRANCH   5  37
BRANCH   4  39
HETATM   39  O   UNK     0     -44.892  -2.504  14.403  0.00  0.00    -0.390 OA
HETATM   40  H   UNK     0     -44.666  -1.850  13.720  0.00  0.00     0.210 HD
ENDBRANCH   4  39
TORSDOF 15
ENDMDL
MODEL 10
REMARK VINA RESULT:      -6.3      3.229     11.303
REMARK  15 active torsions:
REMARK  status: ('A' for Active; 'I' for Inactive)
REMARK    1  A    between atoms: O_2  and  C_18 
REMARK    2  A    between atoms: O_2  and  C_22 
REMARK    3  A    between atoms: O_4  and  C_14 
REMARK    4  A    between atoms: O_5  and  C_21 
REMARK    5  A    between atoms: O_5  and  C_25 
REMARK    6  A    between atoms: O_6  and  C_15 
REMARK    7  A    between atoms: O_7  and  C_16 
REMARK    8  A    between atoms: O_8  and  C_17 
REMARK    9  A    between atoms: O_9  and  C_19 
REMARK   10  A    between atoms: O_10  and  C_20 
REMARK   11  A    between atoms: O_11  and  C_30 
REMARK   12  A    between atoms: O_12  and  C_32 
REMARK   13  A    between atoms: C_13  and  C_22 
REMARK   14  A    between atoms: C_25  and  C_26 
REMARK   15  A    between atoms: C_26  and  C_27 
ROOT
HETATM    1  O   UNK     0     -41.783   2.271  20.189  0.00  0.00    -0.348 OA
HETATM    2  C   UNK     0     -40.982   3.329  20.719  0.00  0.00     0.180 C 
HETATM    3  C   UNK     0     -39.875   2.752  21.604  0.00  0.00     0.180 C 
HETATM    4  C   UNK     0     -40.465   1.877  22.711  0.00  0.00     0.183 C 
HETATM    5  C   UNK     0     -41.461   0.867  22.143  0.00  0.00     0.204 C 
HETATM    6  C   UNK     0     -42.464   1.539  21.206  0.00  0.00     0.291 C 
ENDROOT
BRANCH   2   7
HETATM    7  C   UNK     0     -40.412   4.110  19.539  0.00  0.00     0.205 C 
BRANCH   7   8
HETATM    8  O   UNK     0     -40.136   5.440  19.955  0.00  0.00    -0.356 OA
BRANCH   8   9
HETATM    9  C   UNK     0     -38.875   5.886  19.469  0.00  0.00     0.291 C 
HETATM   10  O   UNK     0     -37.935   6.121  20.523  0.00  0.00    -0.351 OA
HETATM   11  C   UNK     0     -38.306   7.179  21.414  0.00  0.00     0.152 C 
HETATM   12  C   UNK     0     -38.463   8.506  20.659  0.00  0.00     0.178 C 
HETATM   13  C   UNK     0     -37.223   7.256  22.488  0.00  0.00     0.042 C 
HETATM   14  C   UNK     0     -39.447   8.338  19.501  0.00  0.00     0.183 C 
HETATM   15  C   UNK     0     -39.063   7.145  18.624  0.00  0.00     0.204 C 
BRANCH  12  16
HETATM   16  O   UNK     0     -38.971   9.512  21.531  0.00  0.00    -0.390 OA
HETATM   17  H   UNK     0     -38.557  10.359  21.288  0.00  0.00     0.210 HD
ENDBRANCH  12  16
BRANCH  14  18
HETATM   18  O   UNK     0     -39.460   9.531  18.719  0.00  0.00    -0.390 OA
HETATM   19  H   UNK     0     -40.384   9.708  18.470  0.00  0.00     0.210 HD
ENDBRANCH  14  18
BRANCH  15  20
HETATM   20  O   UNK     0     -37.829   7.409  17.956  0.00  0.00    -0.388 OA
HETATM   21  H   UNK     0     -38.037   7.647  17.037  0.00  0.00     0.210 HD
ENDBRANCH  15  20
ENDBRANCH   8   9
ENDBRANCH   7   8
ENDBRANCH   2   7
BRANCH   6  22
HETATM   22  O   UNK     0     -43.264   0.517  20.611  0.00  0.00    -0.358 OA
BRANCH  22  23
HETATM   23  C   UNK     0     -42.601  -0.079  19.507  0.00  0.00     0.175 C 
BRANCH  23  24
HETATM   24  C   UNK     0     -43.348  -1.336  19.077  0.00  0.00     0.065 C 
BRANCH  24  25
HETATM   25  C   UNK     0     -44.225  -1.099  17.872  0.00  0.00    -0.053 A 
HETATM   26  C   UNK     0     -43.900  -1.680  16.647  0.00  0.00     0.046 A 
HETATM   27  C   UNK     0     -44.712  -1.462  15.534  0.00  0.00     0.099 A 
HETATM   28  C   UNK     0     -45.850  -0.663  15.646  0.00  0.00     0.098 A 
HETATM   29  C   UNK     0     -46.175  -0.083  16.871  0.00  0.00     0.040 A 
HETATM   30  C   UNK     0     -45.364  -0.300  17.985  0.00  0.00     0.010 A 
BRANCH  27  31
HETATM   31  O   UNK     0     -44.385  -2.037  14.343  0.00  0.00    -0.358 OA
HETATM   32  H   UNK     0     -44.667  -1.450  13.620  0.00  0.00     0.217 HD
ENDBRANCH  27  31
BRANCH  28  33
HETATM   33  O   UNK     0     -46.651  -0.443  14.566  0.00  0.00    -0.358 OA
HETATM   34  H   UNK     0     -46.104  -0.440  13.762  0.00  0.00     0.217 HD
ENDBRANCH  28  33
ENDBRANCH  24  25
ENDBRANCH  23  24
ENDBRANCH  22  23
ENDBRANCH   6  22
BRANCH   3  35
HETATM   35  O   UNK     0     -39.137   3.821  22.191  0.00  0.00    -0.390 OA
HETATM   36  H   UNK     0     -39.244   4.605  21.627  0.00  0.00     0.210 HD
ENDBRANCH   3  35
BRANCH   5  37
HETATM   37  O   UNK     0     -42.187   0.264  23.215  0.00  0.00    -0.388 OA
HETATM   38  H   UNK     0     -43.126   0.232  22.963  0.00  0.00     0.210 HD
ENDBRANCH   5  37
BRANCH   4  39
HETATM   39  O   UNK     0     -39.390   1.181  23.344  0.00  0.00    -0.390 OA
HETATM   40  H   UNK     0     -38.603   1.753  23.321  0.00  0.00     0.210 HD
ENDBRANCH   4  39
TORSDOF 15
ENDMDL
