MODEL 1
REMARK VINA RESULT:      -5.4      0.000      0.000
REMARK  13 active torsions:
REMARK  status: ('A' for Active; 'I' for Inactive)
REMARK    1  A    between atoms: C_5  and  N_6 
REMARK    2  A    between atoms: C_9  and  N_10 
REMARK    3  A    between atoms: N_10  and  C_11 
REMARK    4  A    between atoms: C_11  and  C_12 
REMARK    5  A    between atoms: C_12  and  C_13 
REMARK    6  A    between atoms: C_13  and  C_14 
REMARK    7  A    between atoms: C_14  and  C_15 
REMARK    8  A    between atoms: C_15  and  C_16 
REMARK    9  A    between atoms: C_16  and  N_17 
REMARK       I    between atoms: N_17  and  C_18 
REMARK   10  A    between atoms: C_18  and  C_20 
REMARK   11  A    between atoms: C_25  and  N_26 
REMARK       I    between atoms: N_26  and  C_27 
REMARK   12  A    between atoms: C_27  and  C_29 
REMARK   13  A    between atoms: C_29  and  C_30 
ROOT
HETATM    1  O   MOL     1     -51.928   2.015  21.121  1.00 -0.03    -0.273 OA
HETATM    2  C   MOL     1     -50.717   1.909  21.035  1.00 -0.41     0.224 C 
HETATM    3  C   MOL     1     -49.956   0.854  21.805  1.00 -0.27     0.106 C 
HETATM    4  C   MOL     1     -48.703   0.388  21.058  1.00 -0.23     0.044 C 
HETATM    5  C   MOL     1     -47.864   1.648  20.830  1.00 -0.30     0.180 C 
HETATM    6  C   MOL     1     -48.628   2.690  20.042  1.00 -0.49     0.247 C 
HETATM    7  O   MOL     1     -48.063   3.451  19.275  1.00 -0.12    -0.271 OA
HETATM    8  N   MOL     1     -49.964   2.711  20.247  1.00 -0.04    -0.296 N 
HETATM    9  HN  MOL     1     -50.407   3.325  19.797  1.00 -0.27     0.171 HD
ENDROOT
BRANCH   5  10
HETATM   10  N   MOL     1     -46.586   1.315  20.182  1.00  0.05    -0.337 N 
HETATM   11  C   MOL     1     -46.503   0.417  19.018  1.00 -0.25     0.138 C 
HETATM   12  C   MOL     1     -45.064  -0.020  19.350  1.00 -0.27     0.070 C 
HETATM   13  C   MOL     1     -44.216  -0.901  18.458  1.00 -0.20     0.011 C 
HETATM   14  C   MOL     1     -44.352   1.290  19.698  1.00 -0.40     0.112 C 
HETATM   15  C   MOL     1     -42.883  -0.898  18.616  1.00 -0.28     0.025 C 
HETATM   16  C   MOL     1     -42.266  -0.046  19.635  1.00 -0.47    -0.001 C 
HETATM   17  C   MOL     1     -42.947   0.979  20.145  1.00 -0.52    -0.012 C 
HETATM   18  C   MOL     1     -45.416   1.798  20.629  1.00 -0.44     0.229 C 
HETATM   19  O   MOL     1     -45.242   2.511  21.607  1.00 -0.63    -0.273 OA
BRANCH  13  20
HETATM   20  N   MOL     1     -44.939  -1.653  17.578  1.00  0.04    -0.393 N 
HETATM   21  HN  MOL     1     -45.644  -2.086  17.880  1.00 -0.01     0.159 HD
BRANCH  20  22
HETATM   22  C   MOL     1     -44.873  -1.370  16.137  1.00 -0.24     0.119 C 
BRANCH  22  23
HETATM   23  C   MOL     1     -46.215  -0.949  15.517  1.00 -0.09     0.020 C 
BRANCH  23  24
HETATM   24  C   MOL     1     -47.310  -1.867  16.081  1.00 -0.19     0.002 C 
BRANCH  24  25
HETATM   25  C   MOL     1     -48.687  -1.450  15.544  1.00 -0.35     0.002 C 
BRANCH  25  26
HETATM   26  C   MOL     1     -49.064  -2.395  14.393  1.00 -0.42     0.020 C 
BRANCH  26  27
HETATM   27  C   MOL     1     -50.207  -1.791  13.567  1.00 -0.29     0.123 C 
BRANCH  27  28
HETATM   28  N   MOL     1     -50.485  -0.438  14.072  1.00 -0.04    -0.357 N 
HETATM   29  C   MOL     1     -51.741  -0.101  14.439  1.00 -0.29     0.254 C 
HETATM   30  O   MOL     1     -52.687  -0.883  14.372  1.00 -0.19    -0.268 OA
HETATM   31  HN  MOL     1     -49.825   0.137  14.150  1.00 -0.09     0.162 HD
BRANCH  29  32
HETATM   32  C   MOL     1     -52.034   1.272  14.939  1.00 -0.21     0.061 A 
HETATM   33  C   MOL     1     -52.069   2.347  14.073  1.00 -0.36     0.038 A 
HETATM   34  C   MOL     1     -52.363   3.606  14.531  1.00 -0.38     0.117 A 
HETATM   35  N   MOL     1     -52.633   3.889  15.819  1.00 -0.12    -0.271 NA
HETATM   36  C   MOL     1     -52.598   2.842  16.658  1.00 -0.27     0.146 A 
HETATM   37  C   MOL     1     -52.306   1.543  16.278  1.00 -0.14     0.068 A 
BRANCH  37  38
HETATM   38  N   MOL     1     -52.275   0.522  17.236  1.00  0.07    -0.325 N 
HETATM   39  C   MOL     1     -51.192   0.120  17.930  1.00 -0.29     0.226 C 
HETATM   40  O   MOL     1     -50.079   0.618  17.836  1.00 -0.10    -0.273 OA
HETATM   41  HN  MOL     1     -53.035   0.112  17.398  1.00  0.05     0.169 HD
BRANCH  39  42
HETATM   42  C   MOL     1     -51.487  -1.016  18.889  1.00 -0.34     0.141 C 
BRANCH  42  43
HETATM   43  C   MOL     1     -51.022  -2.337  18.303  1.00 -0.21    -0.048 A 
HETATM   44  C   MOL     1     -49.920  -2.976  18.827  1.00 -0.31     0.007 A 
HETATM   45  C   MOL     1     -49.499  -4.175  18.296  1.00 -0.36     0.002 A 
HETATM   46  C   MOL     1     -50.179  -4.737  17.239  1.00 -0.30     0.024 A 
HETATM   47  C   MOL     1     -51.282  -4.100  16.715  1.00 -0.25     0.034 A 
HETATM   48 CL   MOL     1     -52.143  -4.809  15.380  1.00 -0.85    -0.084 Cl
HETATM   49  C   MOL     1     -51.702  -2.901  17.247  1.00 -0.22     0.031 A 
ENDBRANCH  42  43
ENDBRANCH  39  42
ENDBRANCH  37  38
ENDBRANCH  29  32
ENDBRANCH  27  28
ENDBRANCH  26  27
ENDBRANCH  25  26
ENDBRANCH  24  25
ENDBRANCH  23  24
ENDBRANCH  22  23
ENDBRANCH  20  22
ENDBRANCH  13  20
ENDBRANCH   5  10
TORSDOF 13
ENDMDL
MODEL 2
REMARK VINA RESULT:      -5.4      1.878      2.571
REMARK  13 active torsions:
REMARK  status: ('A' for Active; 'I' for Inactive)
REMARK    1  A    between atoms: C_5  and  N_6 
REMARK    2  A    between atoms: C_9  and  N_10 
REMARK    3  A    between atoms: N_10  and  C_11 
REMARK    4  A    between atoms: C_11  and  C_12 
REMARK    5  A    between atoms: C_12  and  C_13 
REMARK    6  A    between atoms: C_13  and  C_14 
REMARK    7  A    between atoms: C_14  and  C_15 
REMARK    8  A    between atoms: C_15  and  C_16 
REMARK    9  A    between atoms: C_16  and  N_17 
REMARK       I    between atoms: N_17  and  C_18 
REMARK   10  A    between atoms: C_18  and  C_20 
REMARK   11  A    between atoms: C_25  and  N_26 
REMARK       I    between atoms: N_26  and  C_27 
REMARK   12  A    between atoms: C_27  and  C_29 
REMARK   13  A    between atoms: C_29  and  C_30 
ROOT
HETATM    1  O   MOL     1     -52.184   2.776  20.195  1.00 -0.03    -0.273 OA
HETATM    2  C   MOL     1     -51.040   2.356  20.156  1.00 -0.41     0.224 C 
HETATM    3  C   MOL     1     -50.703   0.936  20.548  1.00 -0.27     0.106 C 
HETATM    4  C   MOL     1     -49.502   0.394  19.768  1.00 -0.23     0.044 C 
HETATM    5  C   MOL     1     -48.349   1.359  20.059  1.00 -0.30     0.180 C 
HETATM    6  C   MOL     1     -48.689   2.774  19.646  1.00 -0.49     0.247 C 
HETATM    7  O   MOL     1     -47.835   3.544  19.240  1.00 -0.12    -0.271 OA
HETATM    8  N   MOL     1     -49.993   3.114  19.758  1.00 -0.04    -0.296 N 
HETATM    9  HN  MOL     1     -50.189   3.942  19.528  1.00 -0.27     0.171 HD
ENDROOT
BRANCH   5  10
HETATM   10  N   MOL     1     -47.107   0.897  19.420  1.00  0.05    -0.337 N 
HETATM   11  C   MOL     1     -47.047   0.511  18.000  1.00 -0.25     0.138 C 
HETATM   12  C   MOL     1     -45.865  -0.450  18.222  1.00 -0.27     0.070 C 
HETATM   13  C   MOL     1     -45.129  -1.165  17.109  1.00 -0.20     0.011 C 
HETATM   14  C   MOL     1     -44.910   0.340  19.121  1.00 -0.40     0.112 C 
HETATM   15  C   MOL     1     -43.898  -1.645  17.345  1.00 -0.28     0.025 C 
HETATM   16  C   MOL     1     -43.282  -1.470  18.661  1.00 -0.47    -0.001 C 
HETATM   17  C   MOL     1     -43.749  -0.544  19.497  1.00 -0.52    -0.012 C 
HETATM   18  C   MOL     1     -45.957   0.782  20.103  1.00 -0.44     0.229 C 
HETATM   19  O   MOL     1     -45.787   0.992  21.296  1.00 -0.63    -0.273 OA
BRANCH  13  20
HETATM   20  N   MOL     1     -45.847  -1.269  15.953  1.00  0.04    -0.393 N 
HETATM   21  HN  MOL     1     -45.738  -0.650  15.336  1.00 -0.01     0.159 HD
BRANCH  20  22
HETATM   22  C   MOL     1     -46.380  -2.572  15.531  1.00 -0.24     0.119 C 
BRANCH  22  23
HETATM   23  C   MOL     1     -47.233  -3.278  16.597  1.00 -0.09     0.020 C 
BRANCH  23  24
HETATM   24  C   MOL     1     -48.690  -2.825  16.418  1.00 -0.19     0.002 C 
BRANCH  24  25
HETATM   25  C   MOL     1     -49.542  -3.972  15.856  1.00 -0.35     0.002 C 
BRANCH  25  26
HETATM   26  C   MOL     1     -50.379  -3.427  14.690  1.00 -0.42     0.020 C 
BRANCH  26  27
HETATM   27  C   MOL     1     -49.479  -2.673  13.700  1.00 -0.29     0.123 C 
BRANCH  27  28
HETATM   28  N   MOL     1     -50.127  -1.400  13.356  1.00 -0.04    -0.357 N 
HETATM   29  C   MOL     1     -49.601  -0.235  13.795  1.00 -0.29     0.254 C 
HETATM   30  O   MOL     1     -48.585  -0.182  14.485  1.00 -0.19    -0.268 OA
HETATM   31  HN  MOL     1     -50.844  -1.404  12.847  1.00 -0.09     0.162 HD
BRANCH  29  32
HETATM   32  C   MOL     1     -50.260   1.059  13.462  1.00 -0.21     0.061 A 
HETATM   33  C   MOL     1     -49.859   1.794  12.362  1.00 -0.36     0.038 A 
HETATM   34  C   MOL     1     -50.485   2.972  12.042  1.00 -0.38     0.117 A 
HETATM   35  N   MOL     1     -51.505   3.493  12.748  1.00 -0.12    -0.271 NA
HETATM   36  C   MOL     1     -51.891   2.777  13.817  1.00 -0.27     0.146 A 
HETATM   37  C   MOL     1     -51.311   1.583  14.209  1.00 -0.14     0.068 A 
BRANCH  37  38
HETATM   38  N   MOL     1     -51.776   0.922  15.353  1.00  0.07    -0.325 N 
HETATM   39  C   MOL     1     -52.658  -0.099  15.375  1.00 -0.29     0.226 C 
HETATM   40  O   MOL     1     -53.156  -0.610  14.383  1.00 -0.10    -0.273 OA
HETATM   41  HN  MOL     1     -51.459   1.199  16.124  1.00  0.05     0.169 HD
BRANCH  39  42
HETATM   42  C   MOL     1     -52.963  -0.592  16.775  1.00 -0.34     0.141 C 
BRANCH  42  43
HETATM   43  C   MOL     1     -53.695  -1.921  16.719  1.00 -0.21    -0.048 A 
HETATM   44  C   MOL     1     -55.060  -1.952  16.544  1.00 -0.31     0.007 A 
HETATM   45  C   MOL     1     -55.723  -3.158  16.492  1.00 -0.36     0.002 A 
HETATM   46  C   MOL     1     -55.021  -4.336  16.616  1.00 -0.30     0.024 A 
HETATM   47  C   MOL     1     -53.655  -4.307  16.789  1.00 -0.25     0.034 A 
HETATM   48 CL   MOL     1     -52.767  -5.794  16.945  1.00 -0.85    -0.084 Cl
HETATM   49  C   MOL     1     -52.993  -3.100  16.841  1.00 -0.22     0.031 A 
ENDBRANCH  42  43
ENDBRANCH  39  42
ENDBRANCH  37  38
ENDBRANCH  29  32
ENDBRANCH  27  28
ENDBRANCH  26  27
ENDBRANCH  25  26
ENDBRANCH  24  25
ENDBRANCH  23  24
ENDBRANCH  22  23
ENDBRANCH  20  22
ENDBRANCH  13  20
ENDBRANCH   5  10
TORSDOF 13
ENDMDL
MODEL 3
REMARK VINA RESULT:      -5.2      2.440      3.618
REMARK  13 active torsions:
REMARK  status: ('A' for Active; 'I' for Inactive)
REMARK    1  A    between atoms: C_5  and  N_6 
REMARK    2  A    between atoms: C_9  and  N_10 
REMARK    3  A    between atoms: N_10  and  C_11 
REMARK    4  A    between atoms: C_11  and  C_12 
REMARK    5  A    between atoms: C_12  and  C_13 
REMARK    6  A    between atoms: C_13  and  C_14 
REMARK    7  A    between atoms: C_14  and  C_15 
REMARK    8  A    between atoms: C_15  and  C_16 
REMARK    9  A    between atoms: C_16  and  N_17 
REMARK       I    between atoms: N_17  and  C_18 
REMARK   10  A    between atoms: C_18  and  C_20 
REMARK   11  A    between atoms: C_25  and  N_26 
REMARK       I    between atoms: N_26  and  C_27 
REMARK   12  A    between atoms: C_27  and  C_29 
REMARK   13  A    between atoms: C_29  and  C_30 
ROOT
HETATM    1  O   MOL     1     -52.345   2.500  18.927  1.00 -0.03    -0.273 OA
HETATM    2  C   MOL     1     -51.223   2.090  19.169  1.00 -0.41     0.224 C 
HETATM    3  C   MOL     1     -50.962   0.636  19.491  1.00 -0.27     0.106 C 
HETATM    4  C   MOL     1     -49.574   0.185  19.030  1.00 -0.23     0.044 C 
HETATM    5  C   MOL     1     -48.580   1.116  19.732  1.00 -0.30     0.180 C 
HETATM    6  C   MOL     1     -48.838   2.566  19.388  1.00 -0.49     0.247 C 
HETATM    7  O   MOL     1     -47.931   3.378  19.320  1.00 -0.12    -0.271 OA
HETATM    8  N   MOL     1     -50.131   2.889  19.162  1.00 -0.04    -0.296 N 
HETATM    9  HN  MOL     1     -50.283   3.736  18.973  1.00 -0.27     0.171 HD
ENDROOT
BRANCH   5  10
HETATM   10  N   MOL     1     -47.195   0.729  19.426  1.00  0.05    -0.337 N 
HETATM   11  C   MOL     1     -46.706   0.579  18.044  1.00 -0.25     0.138 C 
HETATM   12  C   MOL     1     -45.624  -0.440  18.448  1.00 -0.27     0.070 C 
HETATM   13  C   MOL     1     -44.574  -0.984  17.503  1.00 -0.20     0.011 C 
HETATM   14  C   MOL     1     -44.998   0.166  19.707  1.00 -0.40     0.112 C 
HETATM   15  C   MOL     1     -43.459  -1.531  18.013  1.00 -0.28     0.025 C 
HETATM   16  C   MOL     1     -43.267  -1.591  19.463  1.00 -0.47    -0.001 C 
HETATM   17  C   MOL     1     -43.983  -0.801  20.261  1.00 -0.52    -0.012 C 
HETATM   18  C   MOL     1     -46.299   0.472  20.391  1.00 -0.44     0.229 C 
HETATM   19  O   MOL     1     -46.497   0.480  21.598  1.00 -0.63    -0.273 OA
BRANCH  13  20
HETATM   20  N   MOL     1     -44.911  -0.878  16.185  1.00  0.04    -0.393 N 
HETATM   21  HN  MOL     1     -44.489  -0.282  15.692  1.00 -0.01     0.159 HD
BRANCH  20  22
HETATM   22  C   MOL     1     -45.558  -2.003  15.496  1.00 -0.24     0.119 C 
BRANCH  22  23
HETATM   23  C   MOL     1     -47.069  -1.821  15.277  1.00 -0.09     0.020 C 
BRANCH  23  24
HETATM   24  C   MOL     1     -47.804  -2.850  16.148  1.00 -0.19     0.002 C 
BRANCH  24  25
HETATM   25  C   MOL     1     -49.172  -3.189  15.537  1.00 -0.35     0.002 C 
BRANCH  25  26
HETATM   26  C   MOL     1     -49.230  -2.597  14.121  1.00 -0.42     0.020 C 
BRANCH  26  27
HETATM   27  C   MOL     1     -50.544  -1.826  13.925  1.00 -0.29     0.123 C 
BRANCH  27  28
HETATM   28  N   MOL     1     -50.260  -0.606  13.156  1.00 -0.04    -0.357 N 
HETATM   29  C   MOL     1     -50.599   0.602  13.658  1.00 -0.29     0.254 C 
HETATM   30  O   MOL     1     -51.144   0.738  14.751  1.00 -0.19    -0.268 OA
HETATM   31  HN  MOL     1     -49.852  -0.671  12.380  1.00 -0.09     0.162 HD
BRANCH  29  32
HETATM   32  C   MOL     1     -50.327   1.842  12.878  1.00 -0.21     0.061 A 
HETATM   33  C   MOL     1     -49.105   2.038  12.265  1.00 -0.36     0.038 A 
HETATM   34  C   MOL     1     -48.866   3.168  11.526  1.00 -0.38     0.117 A 
HETATM   35  N   MOL     1     -49.771   4.148  11.343  1.00 -0.12    -0.271 NA
HETATM   36  C   MOL     1     -50.957   3.955  11.941  1.00 -0.27     0.146 A 
HETATM   37  C   MOL     1     -51.277   2.845  12.706  1.00 -0.14     0.068 A 
BRANCH  37  38
HETATM   38  N   MOL     1     -52.539   2.748  13.305  1.00  0.07    -0.325 N 
HETATM   39  C   MOL     1     -52.929   3.368  14.437  1.00 -0.29     0.226 C 
HETATM   40  O   MOL     1     -52.232   4.133  15.087  1.00 -0.10    -0.273 OA
HETATM   41  HN  MOL     1     -53.127   2.236  12.900  1.00  0.05     0.169 HD
BRANCH  39  42
HETATM   42  C   MOL     1     -54.358   3.051  14.828  1.00 -0.34     0.141 C 
BRANCH  42  43
HETATM   43  C   MOL     1     -54.620   1.561  14.709  1.00 -0.21    -0.048 A 
HETATM   44  C   MOL     1     -54.190   0.701  15.695  1.00 -0.31     0.007 A 
HETATM   45  C   MOL     1     -54.429  -0.650  15.586  1.00 -0.36     0.002 A 
HETATM   46  C   MOL     1     -55.101  -1.145  14.492  1.00 -0.30     0.024 A 
HETATM   47  C   MOL     1     -55.534  -0.288  13.505  1.00 -0.25     0.034 A 
HETATM   48 CL   MOL     1     -56.383  -0.911  12.122  1.00 -0.85    -0.084 Cl
HETATM   49  C   MOL     1     -55.294   1.065  13.615  1.00 -0.22     0.031 A 
ENDBRANCH  42  43
ENDBRANCH  39  42
ENDBRANCH  37  38
ENDBRANCH  29  32
ENDBRANCH  27  28
ENDBRANCH  26  27
ENDBRANCH  25  26
ENDBRANCH  24  25
ENDBRANCH  23  24
ENDBRANCH  22  23
ENDBRANCH  20  22
ENDBRANCH  13  20
ENDBRANCH   5  10
TORSDOF 13
ENDMDL
MODEL 4
REMARK VINA RESULT:      -5.0      5.088      7.054
REMARK  13 active torsions:
REMARK  status: ('A' for Active; 'I' for Inactive)
REMARK    1  A    between atoms: C_5  and  N_6 
REMARK    2  A    between atoms: C_9  and  N_10 
REMARK    3  A    between atoms: N_10  and  C_11 
REMARK    4  A    between atoms: C_11  and  C_12 
REMARK    5  A    between atoms: C_12  and  C_13 
REMARK    6  A    between atoms: C_13  and  C_14 
REMARK    7  A    between atoms: C_14  and  C_15 
REMARK    8  A    between atoms: C_15  and  C_16 
REMARK    9  A    between atoms: C_16  and  N_17 
REMARK       I    between atoms: N_17  and  C_18 
REMARK   10  A    between atoms: C_18  and  C_20 
REMARK   11  A    between atoms: C_25  and  N_26 
REMARK       I    between atoms: N_26  and  C_27 
REMARK   12  A    between atoms: C_27  and  C_29 
REMARK   13  A    between atoms: C_29  and  C_30 
ROOT
HETATM    1  O   MOL     1     -51.845   2.812  21.226  1.00 -0.03    -0.273 OA
HETATM    2  C   MOL     1     -50.694   2.453  21.046  1.00 -0.41     0.224 C 
HETATM    3  C   MOL     1     -50.149   1.190  21.673  1.00 -0.27     0.106 C 
HETATM    4  C   MOL     1     -49.073   0.534  20.804  1.00 -0.23     0.044 C 
HETATM    5  C   MOL     1     -47.986   1.596  20.619  1.00 -0.30     0.180 C 
HETATM    6  C   MOL     1     -48.537   2.849  19.973  1.00 -0.49     0.247 C 
HETATM    7  O   MOL     1     -47.857   3.538  19.231  1.00 -0.12    -0.271 OA
HETATM    8  N   MOL     1     -49.822   3.141  20.274  1.00 -0.04    -0.296 N 
HETATM    9  HN  MOL     1     -50.139   3.877  19.907  1.00 -0.27     0.171 HD
ENDROOT
BRANCH   5  10
HETATM   10  N   MOL     1     -46.850   1.055  19.857  1.00  0.05    -0.337 N 
HETATM   11  C   MOL     1     -47.031   0.189  18.679  1.00 -0.25     0.138 C 
HETATM   12  C   MOL     1     -45.674  -0.510  18.878  1.00 -0.27     0.070 C 
HETATM   13  C   MOL     1     -45.080  -1.506  17.905  1.00 -0.20     0.011 C 
HETATM   14  C   MOL     1     -44.707   0.638  19.179  1.00 -0.40     0.112 C 
HETATM   15  C   MOL     1     -43.760  -1.749  17.945  1.00 -0.28     0.025 C 
HETATM   16  C   MOL     1     -42.915  -1.052  18.916  1.00 -0.47    -0.001 C 
HETATM   17  C   MOL     1     -43.350   0.065  19.496  1.00 -0.52    -0.012 C 
HETATM   18  C   MOL     1     -45.577   1.305  20.205  1.00 -0.44     0.229 C 
HETATM   19  O   MOL     1     -45.194   1.947  21.172  1.00 -0.63    -0.273 OA
BRANCH  13  20
HETATM   20  N   MOL     1     -46.000  -2.089  17.083  1.00  0.04    -0.393 N 
HETATM   21  HN  MOL     1     -46.720  -2.444  17.447  1.00 -0.01     0.159 HD
BRANCH  20  22
HETATM   22  C   MOL     1     -46.063  -1.717  15.663  1.00 -0.24     0.119 C 
BRANCH  22  23
HETATM   23  C   MOL     1     -47.362  -1.003  15.257  1.00 -0.09     0.020 C 
BRANCH  23  24
HETATM   24  C   MOL     1     -48.227  -1.999  14.470  1.00 -0.19     0.002 C 
BRANCH  24  25
HETATM   25  C   MOL     1     -49.675  -1.973  14.983  1.00 -0.35     0.002 C 
BRANCH  25  26
HETATM   26  C   MOL     1     -49.774  -2.903  16.201  1.00 -0.42     0.020 C 
BRANCH  26  27
HETATM   27  C   MOL     1     -48.798  -4.078  16.049  1.00 -0.29     0.123 C 
BRANCH  27  28
HETATM   28  N   MOL     1     -49.470  -5.305  16.500  1.00 -0.04    -0.357 N 
HETATM   29  C   MOL     1     -48.952  -6.021  17.523  1.00 -0.29     0.254 C 
HETATM   30  O   MOL     1     -47.924  -5.692  18.111  1.00 -0.19    -0.268 OA
HETATM   31  HN  MOL     1     -50.219  -5.554  16.112  1.00 -0.09     0.162 HD
BRANCH  29  32
HETATM   32  C   MOL     1     -49.620  -7.273  17.977  1.00 -0.21     0.061 A 
HETATM   33  C   MOL     1     -50.989  -7.319  18.157  1.00 -0.36     0.038 A 
HETATM   34  C   MOL     1     -51.604  -8.480  18.550  1.00 -0.38     0.117 A 
HETATM   35  N   MOL     1     -50.948  -9.632  18.786  1.00 -0.12    -0.271 NA
HETATM   36  C   MOL     1     -49.618  -9.583  18.611  1.00 -0.27     0.146 A 
HETATM   37  C   MOL     1     -48.921  -8.452  18.220  1.00 -0.14     0.068 A 
BRANCH  37  38
HETATM   38  N   MOL     1     -47.528  -8.501  18.085  1.00  0.07    -0.325 N 
HETATM   39  C   MOL     1     -46.633  -8.481  19.093  1.00 -0.29     0.226 C 
HETATM   40  O   MOL     1     -46.921  -8.447  20.281  1.00 -0.10    -0.273 OA
HETATM   41  HN  MOL     1     -47.214  -8.551  17.266  1.00  0.05     0.169 HD
BRANCH  39  42
HETATM   42  C   MOL     1     -45.196  -8.539  18.616  1.00 -0.34     0.141 C 
BRANCH  42  43
HETATM   43  C   MOL     1     -44.581  -9.885  18.952  1.00 -0.21    -0.048 A 
HETATM   44  C   MOL     1     -45.386 -10.985  19.145  1.00 -0.31     0.007 A 
HETATM   45  C   MOL     1     -44.827 -12.206  19.448  1.00 -0.36     0.002 A 
HETATM   46  C   MOL     1     -43.461 -12.330  19.559  1.00 -0.30     0.024 A 
HETATM   47  C   MOL     1     -42.653 -11.232  19.365  1.00 -0.25     0.034 A 
HETATM   48 CL   MOL     1     -40.927 -11.387  19.505  1.00 -0.85    -0.084 Cl
HETATM   49  C   MOL     1     -43.214 -10.011  19.062  1.00 -0.22     0.031 A 
ENDBRANCH  42  43
ENDBRANCH  39  42
ENDBRANCH  37  38
ENDBRANCH  29  32
ENDBRANCH  27  28
ENDBRANCH  26  27
ENDBRANCH  25  26
ENDBRANCH  24  25
ENDBRANCH  23  24
ENDBRANCH  22  23
ENDBRANCH  20  22
ENDBRANCH  13  20
ENDBRANCH   5  10
TORSDOF 13
ENDMDL
MODEL 5
REMARK VINA RESULT:      -4.8      2.266      3.340
REMARK  13 active torsions:
REMARK  status: ('A' for Active; 'I' for Inactive)
REMARK    1  A    between atoms: C_5  and  N_6 
REMARK    2  A    between atoms: C_9  and  N_10 
REMARK    3  A    between atoms: N_10  and  C_11 
REMARK    4  A    between atoms: C_11  and  C_12 
REMARK    5  A    between atoms: C_12  and  C_13 
REMARK    6  A    between atoms: C_13  and  C_14 
REMARK    7  A    between atoms: C_14  and  C_15 
REMARK    8  A    between atoms: C_15  and  C_16 
REMARK    9  A    between atoms: C_16  and  N_17 
REMARK       I    between atoms: N_17  and  C_18 
REMARK   10  A    between atoms: C_18  and  C_20 
REMARK   11  A    between atoms: C_25  and  N_26 
REMARK       I    between atoms: N_26  and  C_27 
REMARK   12  A    between atoms: C_27  and  C_29 
REMARK   13  A    between atoms: C_29  and  C_30 
ROOT
HETATM    1  O   MOL     1     -51.688   3.088  20.893  1.00 -0.03    -0.273 OA
HETATM    2  C   MOL     1     -50.556   2.669  20.723  1.00 -0.41     0.224 C 
HETATM    3  C   MOL     1     -50.131   1.307  21.222  1.00 -0.27     0.106 C 
HETATM    4  C   MOL     1     -49.058   0.677  20.330  1.00 -0.23     0.044 C 
HETATM    5  C   MOL     1     -47.893   1.672  20.317  1.00 -0.30     0.180 C 
HETATM    6  C   MOL     1     -48.325   3.026  19.798  1.00 -0.49     0.247 C 
HETATM    7  O   MOL     1     -47.563   3.743  19.172  1.00 -0.12    -0.271 OA
HETATM    8  N   MOL     1     -49.601   3.375  20.074  1.00 -0.04    -0.296 N 
HETATM    9  HN  MOL     1     -49.849   4.169  19.783  1.00 -0.27     0.171 HD
ENDROOT
BRANCH   5  10
HETATM   10  N   MOL     1     -46.759   1.139  19.548  1.00  0.05    -0.337 N 
HETATM   11  C   MOL     1     -46.922   0.547  18.209  1.00 -0.25     0.138 C 
HETATM   12  C   MOL     1     -45.682  -0.353  18.362  1.00 -0.27     0.070 C 
HETATM   13  C   MOL     1     -45.115  -1.214  17.254  1.00 -0.20     0.011 C 
HETATM   14  C   MOL     1     -44.623   0.576  18.960  1.00 -0.40     0.112 C 
HETATM   15  C   MOL     1     -43.844  -1.636  17.342  1.00 -0.28     0.025 C 
HETATM   16  C   MOL     1     -43.023  -1.258  18.494  1.00 -0.47    -0.001 C 
HETATM   17  C   MOL     1     -43.381  -0.225  19.255  1.00 -0.52    -0.012 C 
HETATM   18  C   MOL     1     -45.507   1.144  20.033  1.00 -0.44     0.229 C 
HETATM   19  O   MOL     1     -45.149   1.532  21.136  1.00 -0.63    -0.273 OA
BRANCH  13  20
HETATM   20  N   MOL     1     -46.011  -1.500  16.266  1.00  0.04    -0.393 N 
HETATM   21  HN  MOL     1     -45.993  -1.014  15.531  1.00 -0.01     0.159 HD
BRANCH  20  22
HETATM   22  C   MOL     1     -46.626  -2.833  16.190  1.00 -0.24     0.119 C 
BRANCH  22  23
HETATM   23  C   MOL     1     -48.112  -2.862  16.586  1.00 -0.09     0.020 C 
BRANCH  23  24
HETATM   24  C   MOL     1     -48.930  -2.319  15.405  1.00 -0.19     0.002 C 
BRANCH  24  25
HETATM   25  C   MOL     1     -49.871  -3.404  14.861  1.00 -0.35     0.002 C 
BRANCH  25  26
HETATM   26  C   MOL     1     -49.942  -4.543  15.889  1.00 -0.42     0.020 C 
BRANCH  26  27
HETATM   27  C   MOL     1     -51.406  -4.899  16.181  1.00 -0.29     0.123 C 
BRANCH  27  28
HETATM   28  N   MOL     1     -52.261  -4.196  15.214  1.00 -0.04    -0.357 N 
HETATM   29  C   MOL     1     -53.421  -3.636  15.622  1.00 -0.29     0.254 C 
HETATM   30  O   MOL     1     -53.810  -3.683  16.787  1.00 -0.19    -0.268 OA
HETATM   31  HN  MOL     1     -52.000  -4.128  14.377  1.00 -0.09     0.162 HD
BRANCH  29  32
HETATM   32  C   MOL     1     -54.300  -2.933  14.645  1.00 -0.21     0.061 A 
HETATM   33  C   MOL     1     -55.057  -3.646  13.735  1.00 -0.36     0.038 A 
HETATM   34  C   MOL     1     -55.884  -2.998  12.854  1.00 -0.38     0.117 A 
HETATM   35  N   MOL     1     -56.023  -1.660  12.802  1.00 -0.12    -0.271 NA
HETATM   36  C   MOL     1     -55.285  -0.971  13.687  1.00 -0.27     0.146 A 
HETATM   37  C   MOL     1     -54.424  -1.547  14.606  1.00 -0.14     0.068 A 
BRANCH  37  38
HETATM   38  N   MOL     1     -53.683  -0.737  15.475  1.00  0.07    -0.325 N 
HETATM   39  C   MOL     1     -52.446  -0.252  15.245  1.00 -0.29     0.226 C 
HETATM   40  O   MOL     1     -51.806  -0.435  14.219  1.00 -0.10    -0.273 OA
HETATM   41  HN  MOL     1     -54.065  -0.525  16.237  1.00  0.05     0.169 HD
BRANCH  39  42
HETATM   42  C   MOL     1     -51.913   0.588  16.387  1.00 -0.34     0.141 C 
BRANCH  42  43
HETATM   43  C   MOL     1     -52.036  -0.163  17.699  1.00 -0.21    -0.048 A 
HETATM   44  C   MOL     1     -52.902   0.283  18.673  1.00 -0.31     0.007 A 
HETATM   45  C   MOL     1     -53.014  -0.400  19.863  1.00 -0.36     0.002 A 
HETATM   46  C   MOL     1     -52.262  -1.532  20.082  1.00 -0.30     0.024 A 
HETATM   47  C   MOL     1     -51.397  -1.981  19.110  1.00 -0.25     0.034 A 
HETATM   48 CL   MOL     1     -50.445  -3.411  19.384  1.00 -0.85    -0.084 Cl
HETATM   49  C   MOL     1     -51.285  -1.297  17.919  1.00 -0.22     0.031 A 
ENDBRANCH  42  43
ENDBRANCH  39  42
ENDBRANCH  37  38
ENDBRANCH  29  32
ENDBRANCH  27  28
ENDBRANCH  26  27
ENDBRANCH  25  26
ENDBRANCH  24  25
ENDBRANCH  23  24
ENDBRANCH  22  23
ENDBRANCH  20  22
ENDBRANCH  13  20
ENDBRANCH   5  10
TORSDOF 13
ENDMDL
MODEL 6
REMARK VINA RESULT:      -4.8      2.796      5.404
REMARK  13 active torsions:
REMARK  status: ('A' for Active; 'I' for Inactive)
REMARK    1  A    between atoms: C_5  and  N_6 
REMARK    2  A    between atoms: C_9  and  N_10 
REMARK    3  A    between atoms: N_10  and  C_11 
REMARK    4  A    between atoms: C_11  and  C_12 
REMARK    5  A    between atoms: C_12  and  C_13 
REMARK    6  A    between atoms: C_13  and  C_14 
REMARK    7  A    between atoms: C_14  and  C_15 
REMARK    8  A    between atoms: C_15  and  C_16 
REMARK    9  A    between atoms: C_16  and  N_17 
REMARK       I    between atoms: N_17  and  C_18 
REMARK   10  A    between atoms: C_18  and  C_20 
REMARK   11  A    between atoms: C_25  and  N_26 
REMARK       I    between atoms: N_26  and  C_27 
REMARK   12  A    between atoms: C_27  and  C_29 
REMARK   13  A    between atoms: C_29  and  C_30 
ROOT
HETATM    1  O   MOL     1     -51.518   3.189  21.211  1.00 -0.03    -0.273 OA
HETATM    2  C   MOL     1     -50.367   2.818  21.053  1.00 -0.41     0.224 C 
HETATM    3  C   MOL     1     -49.839   1.566  21.716  1.00 -0.27     0.106 C 
HETATM    4  C   MOL     1     -48.756   0.884  20.875  1.00 -0.23     0.044 C 
HETATM    5  C   MOL     1     -47.660   1.935  20.679  1.00 -0.30     0.180 C 
HETATM    6  C   MOL     1     -48.194   3.176  19.998  1.00 -0.49     0.247 C 
HETATM    7  O   MOL     1     -47.501   3.844  19.250  1.00 -0.12    -0.271 OA
HETATM    8  N   MOL     1     -49.481   3.484  20.277  1.00 -0.04    -0.296 N 
HETATM    9  HN  MOL     1     -49.789   4.213  19.890  1.00 -0.27     0.171 HD
ENDROOT
BRANCH   5  10
HETATM   10  N   MOL     1     -46.518   1.369  19.944  1.00  0.05    -0.337 N 
HETATM   11  C   MOL     1     -46.601   1.003  18.520  1.00 -0.25     0.138 C 
HETATM   12  C   MOL     1     -45.502  -0.069  18.645  1.00 -0.27     0.070 C 
HETATM   13  C   MOL     1     -44.922  -0.832  17.473  1.00 -0.20     0.011 C 
HETATM   14  C   MOL     1     -44.412   0.614  19.476  1.00 -0.40     0.112 C 
HETATM   15  C   MOL     1     -43.727  -1.429  17.611  1.00 -0.28     0.025 C 
HETATM   16  C   MOL     1     -43.001  -1.333  18.878  1.00 -0.47    -0.001 C 
HETATM   17  C   MOL     1     -43.316  -0.381  19.755  1.00 -0.52    -0.012 C 
HETATM   18  C   MOL     1     -45.336   1.137  20.538  1.00 -0.44     0.229 C 
HETATM   19  O   MOL     1     -45.060   1.311  21.716  1.00 -0.63    -0.273 OA
BRANCH  13  20
HETATM   20  N   MOL     1     -45.730  -0.850  16.373  1.00  0.04    -0.393 N 
HETATM   21  HN  MOL     1     -45.792  -0.117  15.888  1.00 -0.01     0.159 HD
BRANCH  20  22
HETATM   22  C   MOL     1     -46.079  -2.127  15.735  1.00 -0.24     0.119 C 
BRANCH  22  23
HETATM   23  C   MOL     1     -47.580  -2.299  15.455  1.00 -0.09     0.020 C 
BRANCH  23  24
HETATM   24  C   MOL     1     -48.358  -1.524  16.529  1.00 -0.19     0.002 C 
BRANCH  24  25
HETATM   25  C   MOL     1     -48.671  -2.435  17.726  1.00 -0.35     0.002 C 
BRANCH  25  26
HETATM   26  C   MOL     1     -49.668  -1.708  18.640  1.00 -0.42     0.020 C 
BRANCH  26  27
HETATM   27  C   MOL     1     -50.289  -2.697  19.636  1.00 -0.29     0.123 C 
BRANCH  27  28
HETATM   28  N   MOL     1     -49.751  -4.037  19.361  1.00 -0.04    -0.357 N 
HETATM   29  C   MOL     1     -50.535  -5.126  19.531  1.00 -0.29     0.254 C 
HETATM   30  O   MOL     1     -51.701  -5.053  19.913  1.00 -0.19    -0.268 OA
HETATM   31  HN  MOL     1     -48.927  -4.119  19.067  1.00 -0.09     0.162 HD
BRANCH  29  32
HETATM   32  C   MOL     1     -49.993  -6.488  19.267  1.00 -0.21     0.061 A 
HETATM   33  C   MOL     1     -49.309  -7.179  20.249  1.00 -0.36     0.038 A 
HETATM   34  C   MOL     1     -48.834  -8.444  20.012  1.00 -0.38     0.117 A 
HETATM   35  N   MOL     1     -48.988  -9.095  18.844  1.00 -0.12    -0.271 NA
HETATM   36  C   MOL     1     -49.653  -8.420  17.892  1.00 -0.27     0.146 A 
HETATM   37  C   MOL     1     -50.161  -7.142  18.049  1.00 -0.14     0.068 A 
BRANCH  37  38
HETATM   38  N   MOL     1     -50.824  -6.516  16.986  1.00  0.07    -0.325 N 
HETATM   39  C   MOL     1     -50.308  -5.567  16.179  1.00 -0.29     0.226 C 
HETATM   40  O   MOL     1     -49.165  -5.138  16.250  1.00 -0.10    -0.273 OA
HETATM   41  HN  MOL     1     -51.650  -6.771  16.833  1.00  0.05     0.169 HD
BRANCH  39  42
HETATM   42  C   MOL     1     -51.284  -5.085  15.126  1.00 -0.34     0.141 C 
BRANCH  42  43
HETATM   43  C   MOL     1     -51.557  -3.602  15.296  1.00 -0.21    -0.048 A 
HETATM   44  C   MOL     1     -51.114  -2.704  14.352  1.00 -0.31     0.007 A 
HETATM   45  C   MOL     1     -51.363  -1.359  14.506  1.00 -0.36     0.002 A 
HETATM   46  C   MOL     1     -52.056  -0.908  15.607  1.00 -0.30     0.024 A 
HETATM   47  C   MOL     1     -52.501  -1.804  16.553  1.00 -0.25     0.034 A 
HETATM   48 CL   MOL     1     -53.377  -1.238  17.944  1.00 -0.85    -0.084 Cl
HETATM   49  C   MOL     1     -52.252  -3.150  16.397  1.00 -0.22     0.031 A 
ENDBRANCH  42  43
ENDBRANCH  39  42
ENDBRANCH  37  38
ENDBRANCH  29  32
ENDBRANCH  27  28
ENDBRANCH  26  27
ENDBRANCH  25  26
ENDBRANCH  24  25
ENDBRANCH  23  24
ENDBRANCH  22  23
ENDBRANCH  20  22
ENDBRANCH  13  20
ENDBRANCH   5  10
TORSDOF 13
ENDMDL
MODEL 7
REMARK VINA RESULT:      -4.7      2.792      6.389
REMARK  13 active torsions:
REMARK  status: ('A' for Active; 'I' for Inactive)
REMARK    1  A    between atoms: C_5  and  N_6 
REMARK    2  A    between atoms: C_9  and  N_10 
REMARK    3  A    between atoms: N_10  and  C_11 
REMARK    4  A    between atoms: C_11  and  C_12 
REMARK    5  A    between atoms: C_12  and  C_13 
REMARK    6  A    between atoms: C_13  and  C_14 
REMARK    7  A    between atoms: C_14  and  C_15 
REMARK    8  A    between atoms: C_15  and  C_16 
REMARK    9  A    between atoms: C_16  and  N_17 
REMARK       I    between atoms: N_17  and  C_18 
REMARK   10  A    between atoms: C_18  and  C_20 
REMARK   11  A    between atoms: C_25  and  N_26 
REMARK       I    between atoms: N_26  and  C_27 
REMARK   12  A    between atoms: C_27  and  C_29 
REMARK   13  A    between atoms: C_29  and  C_30 
ROOT
HETATM    1  O   MOL     1     -49.620  -2.786  14.006  1.00 -0.03    -0.273 OA
HETATM    2  C   MOL     1     -48.658  -2.442  14.670  1.00 -0.41     0.224 C 
HETATM    3  C   MOL     1     -47.952  -1.128  14.424  1.00 -0.27     0.106 C 
HETATM    4  C   MOL     1     -47.351  -0.549  15.708  1.00 -0.23     0.044 C 
HETATM    5  C   MOL     1     -46.396  -1.622  16.239  1.00 -0.30     0.180 C 
HETATM    6  C   MOL     1     -47.116  -2.927  16.501  1.00 -0.49     0.247 C 
HETATM    7  O   MOL     1     -46.774  -3.677  17.399  1.00 -0.12    -0.271 OA
HETATM    8  N   MOL     1     -48.154  -3.194  15.676  1.00 -0.04    -0.296 N 
HETATM    9  HN  MOL     1     -48.565  -3.959  15.820  1.00 -0.27     0.171 HD
ENDROOT
BRANCH   5  10
HETATM   10  N   MOL     1     -45.693  -1.147  17.440  1.00  0.05    -0.337 N 
HETATM   11  C   MOL     1     -46.360  -0.343  18.479  1.00 -0.25     0.138 C 
HETATM   12  C   MOL     1     -45.049   0.337  18.915  1.00 -0.27     0.070 C 
HETATM   13  C   MOL     1     -44.928   1.265  20.105  1.00 -0.20     0.011 C 
HETATM   14  C   MOL     1     -44.042  -0.814  18.986  1.00 -0.40     0.112 C 
HETATM   15  C   MOL     1     -43.717   1.482  20.642  1.00 -0.28     0.025 C 
HETATM   16  C   MOL     1     -42.537   0.821  20.082  1.00 -0.47    -0.001 C 
HETATM   17  C   MOL     1     -42.681  -0.253  19.307  1.00 -0.52    -0.012 C 
HETATM   18  C   MOL     1     -44.392  -1.404  17.650  1.00 -0.44     0.229 C 
HETATM   19  O   MOL     1     -43.631  -2.001  16.901  1.00 -0.63    -0.273 OA
BRANCH  13  20
HETATM   20  N   MOL     1     -46.112   1.822  20.492  1.00  0.04    -0.393 N 
HETATM   21  HN  MOL     1     -46.619   2.197  19.876  1.00 -0.01     0.159 HD
BRANCH  20  22
HETATM   22  C   MOL     1     -46.756   1.393  21.741  1.00 -0.24     0.119 C 
BRANCH  22  23
HETATM   23  C   MOL     1     -47.902   2.307  22.204  1.00 -0.09     0.020 C 
BRANCH  23  24
HETATM   24  C   MOL     1     -49.186   1.468  22.267  1.00 -0.19     0.002 C 
BRANCH  24  25
HETATM   25  C   MOL     1     -48.942   0.069  21.681  1.00 -0.35     0.002 C 
BRANCH  25  26
HETATM   26  C   MOL     1     -50.285  -0.495  21.197  1.00 -0.42     0.020 C 
BRANCH  26  27
HETATM   27  C   MOL     1     -50.832   0.361  20.045  1.00 -0.29     0.123 C 
BRANCH  27  28
HETATM   28  N   MOL     1     -51.453  -0.531  19.055  1.00 -0.04    -0.357 N 
HETATM   29  C   MOL     1     -51.094  -0.449  17.755  1.00 -0.29     0.254 C 
HETATM   30  O   MOL     1     -50.254   0.350  17.346  1.00 -0.19    -0.268 OA
HETATM   31  HN  MOL     1     -52.042  -1.127  19.321  1.00 -0.09     0.162 HD
BRANCH  29  32
HETATM   32  C   MOL     1     -51.729  -1.339  16.743  1.00 -0.21     0.061 A 
HETATM   33  C   MOL     1     -51.689  -2.713  16.886  1.00 -0.36     0.038 A 
HETATM   34  C   MOL     1     -52.297  -3.529  15.966  1.00 -0.38     0.117 A 
HETATM   35  N   MOL     1     -52.960  -3.077  14.886  1.00 -0.12    -0.271 NA
HETATM   36  C   MOL     1     -52.996  -1.741  14.750  1.00 -0.27     0.146 A 
HETATM   37  C   MOL     1     -52.406  -0.849  15.629  1.00 -0.14     0.068 A 
BRANCH  37  38
HETATM   38  N   MOL     1     -52.485   0.528  15.387  1.00  0.07    -0.325 N 
HETATM   39  C   MOL     1     -51.723   1.225  14.520  1.00 -0.29     0.226 C 
HETATM   40  O   MOL     1     -50.867   0.736  13.796  1.00 -0.10    -0.273 OA
HETATM   41  HN  MOL     1     -53.089   0.973  15.842  1.00  0.05     0.169 HD
BRANCH  39  42
HETATM   42  C   MOL     1     -52.049   2.704  14.495  1.00 -0.34     0.141 C 
BRANCH  42  43
HETATM   43  C   MOL     1     -52.862   3.045  13.260  1.00 -0.21    -0.048 A 
HETATM   44  C   MOL     1     -54.145   2.566  13.121  1.00 -0.31     0.007 A 
HETATM   45  C   MOL     1     -54.882   2.877  12.001  1.00 -0.36     0.002 A 
HETATM   46  C   MOL     1     -54.338   3.669  11.016  1.00 -0.30     0.024 A 
HETATM   47  C   MOL     1     -53.055   4.151  11.152  1.00 -0.25     0.034 A 
HETATM   48 CL   MOL     1     -52.366   5.152   9.909  1.00 -0.85    -0.084 Cl
HETATM   49  C   MOL     1     -52.318   3.839  12.274  1.00 -0.22     0.031 A 
ENDBRANCH  42  43
ENDBRANCH  39  42
ENDBRANCH  37  38
ENDBRANCH  29  32
ENDBRANCH  27  28
ENDBRANCH  26  27
ENDBRANCH  25  26
ENDBRANCH  24  25
ENDBRANCH  23  24
ENDBRANCH  22  23
ENDBRANCH  20  22
ENDBRANCH  13  20
ENDBRANCH   5  10
TORSDOF 13
ENDMDL
MODEL 8
REMARK VINA RESULT:      -4.6      2.728      5.188
REMARK  13 active torsions:
REMARK  status: ('A' for Active; 'I' for Inactive)
REMARK    1  A    between atoms: C_5  and  N_6 
REMARK    2  A    between atoms: C_9  and  N_10 
REMARK    3  A    between atoms: N_10  and  C_11 
REMARK    4  A    between atoms: C_11  and  C_12 
REMARK    5  A    between atoms: C_12  and  C_13 
REMARK    6  A    between atoms: C_13  and  C_14 
REMARK    7  A    between atoms: C_14  and  C_15 
REMARK    8  A    between atoms: C_15  and  C_16 
REMARK    9  A    between atoms: C_16  and  N_17 
REMARK       I    between atoms: N_17  and  C_18 
REMARK   10  A    between atoms: C_18  and  C_20 
REMARK   11  A    between atoms: C_25  and  N_26 
REMARK       I    between atoms: N_26  and  C_27 
REMARK   12  A    between atoms: C_27  and  C_29 
REMARK   13  A    between atoms: C_29  and  C_30 
ROOT
HETATM    1  O   MOL     1     -50.864   2.573  22.674  1.00 -0.03    -0.273 OA
HETATM    2  C   MOL     1     -49.932   2.200  21.982  1.00 -0.41     0.224 C 
HETATM    3  C   MOL     1     -49.333   0.821  22.137  1.00 -0.27     0.106 C 
HETATM    4  C   MOL     1     -48.779   0.283  20.814  1.00 -0.23     0.044 C 
HETATM    5  C   MOL     1     -47.742   1.311  20.350  1.00 -0.30     0.180 C 
HETATM    6  C   MOL     1     -48.357   2.683  20.181  1.00 -0.49     0.247 C 
HETATM    7  O   MOL     1     -47.956   3.462  19.333  1.00 -0.12    -0.271 OA
HETATM    8  N   MOL     1     -49.370   2.975  21.027  1.00 -0.04    -0.296 N 
HETATM    9  HN  MOL     1     -49.719   3.779  20.936  1.00 -0.27     0.171 HD
ENDROOT
BRANCH   5  10
HETATM   10  N   MOL     1     -47.078   0.863  19.117  1.00  0.05    -0.337 N 
HETATM   11  C   MOL     1     -47.832   0.488  17.908  1.00 -0.25     0.138 C 
HETATM   12  C   MOL     1     -46.728  -0.466  17.413  1.00 -0.27     0.070 C 
HETATM   13  C   MOL     1     -46.749  -1.166  16.071  1.00 -0.20     0.011 C 
HETATM   14  C   MOL     1     -45.435   0.326  17.622  1.00 -0.40     0.112 C 
HETATM   15  C   MOL     1     -45.599  -1.638  15.565  1.00 -0.28     0.025 C 
HETATM   16  C   MOL     1     -44.347  -1.467  16.303  1.00 -0.47    -0.001 C 
HETATM   17  C   MOL     1     -44.262  -0.551  17.266  1.00 -0.52    -0.012 C 
HETATM   18  C   MOL     1     -45.743   0.754  19.028  1.00 -0.44     0.229 C 
HETATM   19  O   MOL     1     -44.929   0.957  19.918  1.00 -0.63    -0.273 OA
BRANCH  13  20
HETATM   20  N   MOL     1     -47.995  -1.269  15.523  1.00  0.04    -0.393 N 
HETATM   21  HN  MOL     1     -48.688  -1.318  16.065  1.00 -0.01     0.159 HD
BRANCH  20  22
HETATM   22  C   MOL     1     -48.233  -0.819  14.144  1.00 -0.24     0.119 C 
BRANCH  22  23
HETATM   23  C   MOL     1     -49.628  -0.217  13.912  1.00 -0.09     0.020 C 
BRANCH  23  24
HETATM   24  C   MOL     1     -50.561  -0.737  15.015  1.00 -0.19     0.002 C 
BRANCH  24  25
HETATM   25  C   MOL     1     -51.289  -2.006  14.548  1.00 -0.35     0.002 C 
BRANCH  25  26
HETATM   26  C   MOL     1     -51.060  -3.109  15.592  1.00 -0.42     0.020 C 
BRANCH  26  27
HETATM   27  C   MOL     1     -50.359  -4.311  14.946  1.00 -0.29     0.123 C 
BRANCH  27  28
HETATM   28  N   MOL     1     -49.539  -4.979  15.967  1.00 -0.04    -0.357 N 
HETATM   29  C   MOL     1     -50.130  -5.747  16.910  1.00 -0.29     0.254 C 
HETATM   30  O   MOL     1     -51.345  -5.921  16.960  1.00 -0.19    -0.268 OA
HETATM   31  HN  MOL     1     -48.665  -4.890  15.945  1.00 -0.09     0.162 HD
BRANCH  29  32
HETATM   32  C   MOL     1     -49.307  -6.415  17.957  1.00 -0.21     0.061 A 
HETATM   33  C   MOL     1     -48.383  -7.384  17.618  1.00 -0.36     0.038 A 
HETATM   34  C   MOL     1     -47.609  -7.980  18.580  1.00 -0.38     0.117 A 
HETATM   35  N   MOL     1     -47.682  -7.681  19.891  1.00 -0.12    -0.271 NA
HETATM   36  C   MOL     1     -48.581  -6.739  20.217  1.00 -0.27     0.146 A 
HETATM   37  C   MOL     1     -49.403  -6.093  19.308  1.00 -0.14     0.068 A 
BRANCH  37  38
HETATM   38  N   MOL     1     -50.323  -5.137  19.753  1.00  0.07    -0.325 N 
HETATM   39  C   MOL     1     -50.190  -3.799  19.648  1.00 -0.29     0.226 C 
HETATM   40  O   MOL     1     -49.246  -3.233  19.116  1.00 -0.10    -0.273 OA
HETATM   41  HN  MOL     1     -51.054  -5.442  20.133  1.00  0.05     0.169 HD
BRANCH  39  42
HETATM   42  C   MOL     1     -51.360  -3.035  20.235  1.00 -0.34     0.141 C 
BRANCH  42  43
HETATM   43  C   MOL     1     -52.331  -2.632  19.140  1.00 -0.21    -0.048 A 
HETATM   44  C   MOL     1     -53.207  -3.557  18.617  1.00 -0.31     0.007 A 
HETATM   45  C   MOL     1     -54.088  -3.190  17.625  1.00 -0.36     0.002 A 
HETATM   46  C   MOL     1     -54.095  -1.898  17.153  1.00 -0.30     0.024 A 
HETATM   47  C   MOL     1     -53.221  -0.970  17.675  1.00 -0.25     0.034 A 
HETATM   48 CL   MOL     1     -53.229   0.664  17.080  1.00 -0.85    -0.084 Cl
HETATM   49  C   MOL     1     -52.340  -1.338  18.668  1.00 -0.22     0.031 A 
ENDBRANCH  42  43
ENDBRANCH  39  42
ENDBRANCH  37  38
ENDBRANCH  29  32
ENDBRANCH  27  28
ENDBRANCH  26  27
ENDBRANCH  25  26
ENDBRANCH  24  25
ENDBRANCH  23  24
ENDBRANCH  22  23
ENDBRANCH  20  22
ENDBRANCH  13  20
ENDBRANCH   5  10
TORSDOF 13
ENDMDL
MODEL 9
REMARK VINA RESULT:      -4.6      2.937      8.176
REMARK  13 active torsions:
REMARK  status: ('A' for Active; 'I' for Inactive)
REMARK    1  A    between atoms: C_5  and  N_6 
REMARK    2  A    between atoms: C_9  and  N_10 
REMARK    3  A    between atoms: N_10  and  C_11 
REMARK    4  A    between atoms: C_11  and  C_12 
REMARK    5  A    between atoms: C_12  and  C_13 
REMARK    6  A    between atoms: C_13  and  C_14 
REMARK    7  A    between atoms: C_14  and  C_15 
REMARK    8  A    between atoms: C_15  and  C_16 
REMARK    9  A    between atoms: C_16  and  N_17 
REMARK       I    between atoms: N_17  and  C_18 
REMARK   10  A    between atoms: C_18  and  C_20 
REMARK   11  A    between atoms: C_25  and  N_26 
REMARK       I    between atoms: N_26  and  C_27 
REMARK   12  A    between atoms: C_27  and  C_29 
REMARK   13  A    between atoms: C_29  and  C_30 
ROOT
HETATM    1  O   MOL     1     -47.916  -0.212  14.443  1.00 -0.03    -0.273 OA
HETATM    2  C   MOL     1     -49.000  -0.770  14.432  1.00 -0.41     0.224 C 
HETATM    3  C   MOL     1     -49.291  -1.918  13.493  1.00 -0.27     0.106 C 
HETATM    4  C   MOL     1     -50.291  -2.911  14.091  1.00 -0.23     0.044 C 
HETATM    5  C   MOL     1     -51.548  -2.095  14.406  1.00 -0.30     0.180 C 
HETATM    6  C   MOL     1     -51.249  -0.960  15.362  1.00 -0.49     0.247 C 
HETATM    7  O   MOL     1     -52.075  -0.573  16.172  1.00 -0.12    -0.271 OA
HETATM    8  N   MOL     1     -50.016  -0.418  15.254  1.00 -0.04    -0.296 N 
HETATM    9  HN  MOL     1     -49.846   0.250  15.802  1.00 -0.27     0.171 HD
ENDROOT
BRANCH   5  10
HETATM   10  N   MOL     1     -52.619  -2.962  14.920  1.00  0.05    -0.337 N 
HETATM   11  C   MOL     1     -52.347  -4.122  15.786  1.00 -0.25     0.138 C 
HETATM   12  C   MOL     1     -53.615  -4.868  15.329  1.00 -0.27     0.070 C 
HETATM   13  C   MOL     1     -54.097  -6.171  15.929  1.00 -0.20     0.011 C 
HETATM   14  C   MOL     1     -54.705  -3.792  15.353  1.00 -0.40     0.112 C 
HETATM   15  C   MOL     1     -55.380  -6.530  15.763  1.00 -0.28     0.025 C 
HETATM   16  C   MOL     1     -56.294  -5.663  15.016  1.00 -0.47    -0.001 C 
HETATM   17  C   MOL     1     -55.985  -4.383  14.820  1.00 -0.52    -0.012 C 
HETATM   18  C   MOL     1     -53.910  -2.755  14.613  1.00 -0.44     0.229 C 
HETATM   19  O   MOL     1     -54.359  -1.891  13.872  1.00 -0.63    -0.273 OA
BRANCH  13  20
HETATM   20  N   MOL     1     -53.121  -6.876  16.571  1.00  0.04    -0.393 N 
HETATM   21  HN  MOL     1     -52.282  -6.726  16.349  1.00 -0.01     0.159 HD
BRANCH  20  22
HETATM   22  C   MOL     1     -53.386  -7.470  17.889  1.00 -0.24     0.119 C 
BRANCH  22  23
HETATM   23  C   MOL     1     -52.124  -7.931  18.636  1.00 -0.09     0.020 C 
BRANCH  23  24
HETATM   24  C   MOL     1     -50.964  -7.012  18.224  1.00 -0.19     0.002 C 
BRANCH  24  25
HETATM   25  C   MOL     1     -49.729  -7.844  17.848  1.00 -0.35     0.002 C 
BRANCH  25  26
HETATM   26  C   MOL     1     -48.554  -6.884  17.607  1.00 -0.42     0.020 C 
BRANCH  26  27
HETATM   27  C   MOL     1     -49.063  -5.565  17.010  1.00 -0.29     0.123 C 
BRANCH  27  28
HETATM   28  N   MOL     1     -47.949  -4.607  16.975  1.00 -0.04    -0.357 N 
HETATM   29  C   MOL     1     -48.192  -3.285  17.126  1.00 -0.29     0.254 C 
HETATM   30  O   MOL     1     -49.322  -2.831  17.293  1.00 -0.19    -0.268 OA
HETATM   31  HN  MOL     1     -47.128  -4.903  16.877  1.00 -0.09     0.162 HD
BRANCH  29  32
HETATM   32  C   MOL     1     -47.070  -2.306  17.078  1.00 -0.21     0.061 A 
HETATM   33  C   MOL     1     -46.067  -2.426  16.136  1.00 -0.36     0.038 A 
HETATM   34  C   MOL     1     -45.049  -1.509  16.078  1.00 -0.38     0.117 A 
HETATM   35  N   MOL     1     -44.945  -0.452  16.905  1.00 -0.12    -0.271 NA
HETATM   36  C   MOL     1     -45.922  -0.339  17.820  1.00 -0.27     0.146 A 
HETATM   37  C   MOL     1     -46.981  -1.222  17.947  1.00 -0.14     0.068 A 
BRANCH  37  38
HETATM   38  N   MOL     1     -47.939  -1.026  18.949  1.00  0.07    -0.325 N 
HETATM   39  C   MOL     1     -48.986  -0.177  18.889  1.00 -0.29     0.226 C 
HETATM   40  O   MOL     1     -49.259   0.524  17.926  1.00 -0.10    -0.273 OA
HETATM   41  HN  MOL     1     -47.848  -1.503  19.680  1.00  0.05     0.169 HD
BRANCH  39  42
HETATM   42  C   MOL     1     -49.838  -0.192  20.142  1.00 -0.34     0.141 C 
BRANCH  42  43
HETATM   43  C   MOL     1     -51.256  -0.618  19.812  1.00 -0.21    -0.048 A 
HETATM   44  C   MOL     1     -52.247   0.327  19.668  1.00 -0.31     0.007 A 
HETATM   45  C   MOL     1     -53.534  -0.061  19.368  1.00 -0.36     0.002 A 
HETATM   46  C   MOL     1     -53.833  -1.395  19.210  1.00 -0.30     0.024 A 
HETATM   47  C   MOL     1     -52.843  -2.342  19.352  1.00 -0.25     0.034 A 
HETATM   48 CL   MOL     1     -53.218  -4.029  19.154  1.00 -0.85    -0.084 Cl
HETATM   49  C   MOL     1     -51.556  -1.953  19.653  1.00 -0.22     0.031 A 
ENDBRANCH  42  43
ENDBRANCH  39  42
ENDBRANCH  37  38
ENDBRANCH  29  32
ENDBRANCH  27  28
ENDBRANCH  26  27
ENDBRANCH  25  26
ENDBRANCH  24  25
ENDBRANCH  23  24
ENDBRANCH  22  23
ENDBRANCH  20  22
ENDBRANCH  13  20
ENDBRANCH   5  10
TORSDOF 13
ENDMDL
MODEL 10
REMARK VINA RESULT:      -4.5      2.358      4.899
REMARK  13 active torsions:
REMARK  status: ('A' for Active; 'I' for Inactive)
REMARK    1  A    between atoms: C_5  and  N_6 
REMARK    2  A    between atoms: C_9  and  N_10 
REMARK    3  A    between atoms: N_10  and  C_11 
REMARK    4  A    between atoms: C_11  and  C_12 
REMARK    5  A    between atoms: C_12  and  C_13 
REMARK    6  A    between atoms: C_13  and  C_14 
REMARK    7  A    between atoms: C_14  and  C_15 
REMARK    8  A    between atoms: C_15  and  C_16 
REMARK    9  A    between atoms: C_16  and  N_17 
REMARK       I    between atoms: N_17  and  C_18 
REMARK   10  A    between atoms: C_18  and  C_20 
REMARK   11  A    between atoms: C_25  and  N_26 
REMARK       I    between atoms: N_26  and  C_27 
REMARK   12  A    between atoms: C_27  and  C_29 
REMARK   13  A    between atoms: C_29  and  C_30 
ROOT
HETATM    1  O   MOL     1     -52.494  -1.877  14.359  1.00 -0.03    -0.273 OA
HETATM    2  C   MOL     1     -51.334  -1.855  14.732  1.00 -0.41     0.224 C 
HETATM    3  C   MOL     1     -50.525  -0.578  14.737  1.00 -0.27     0.106 C 
HETATM    4  C   MOL     1     -49.480  -0.563  15.856  1.00 -0.23     0.044 C 
HETATM    5  C   MOL     1     -48.602  -1.796  15.619  1.00 -0.30     0.180 C 
HETATM    6  C   MOL     1     -49.418  -3.070  15.635  1.00 -0.49     0.247 C 
HETATM    7  O   MOL     1     -48.952  -4.122  16.040  1.00 -0.12    -0.271 OA
HETATM    8  N   MOL     1     -50.684  -2.957  15.175  1.00 -0.04    -0.296 N 
HETATM    9  HN  MOL     1     -51.155  -3.701  15.173  1.00 -0.27     0.171 HD
ENDROOT
BRANCH   5  10
HETATM   10  N   MOL     1     -47.503  -1.850  16.594  1.00  0.05    -0.337 N 
HETATM   11  C   MOL     1     -47.681  -1.465  18.005  1.00 -0.25     0.138 C 
HETATM   12  C   MOL     1     -46.201  -1.072  18.173  1.00 -0.27     0.070 C 
HETATM   13  C   MOL     1     -45.572  -0.672  19.490  1.00 -0.20     0.011 C 
HETATM   14  C   MOL     1     -45.437  -2.216  17.501  1.00 -0.40     0.112 C 
HETATM   15  C   MOL     1     -44.237  -0.740  19.622  1.00 -0.28     0.025 C 
HETATM   16  C   MOL     1     -43.412  -1.201  18.506  1.00 -0.47    -0.001 C 
HETATM   17  C   MOL     1     -43.965  -1.892  17.510  1.00 -0.52    -0.012 C 
HETATM   18  C   MOL     1     -46.265  -2.237  16.248  1.00 -0.44     0.229 C 
HETATM   19  O   MOL     1     -45.878  -2.546  15.130  1.00 -0.63    -0.273 OA
BRANCH  13  20
HETATM   20  N   MOL     1     -46.471  -0.240  20.421  1.00  0.04    -0.393 N 
HETATM   21  HN  MOL     1     -47.237  -0.669  20.493  1.00 -0.01     0.159 HD
BRANCH  20  22
HETATM   22  C   MOL     1     -46.018   0.551  21.574  1.00 -0.24     0.119 C 
BRANCH  22  23
HETATM   23  C   MOL     1     -46.727   1.906  21.723  1.00 -0.09     0.020 C 
BRANCH  23  24
HETATM   24  C   MOL     1     -46.941   2.490  20.319  1.00 -0.19     0.002 C 
BRANCH  24  25
HETATM   25  C   MOL     1     -48.389   2.973  20.154  1.00 -0.35     0.002 C 
BRANCH  25  26
HETATM   26  C   MOL     1     -49.093   2.059  19.141  1.00 -0.42     0.020 C 
BRANCH  26  27
HETATM   27  C   MOL     1     -50.581   2.424  19.045  1.00 -0.29     0.123 C 
BRANCH  27  28
HETATM   28  N   MOL     1     -50.993   2.340  17.637  1.00 -0.04    -0.357 N 
HETATM   29  C   MOL     1     -52.272   2.608  17.291  1.00 -0.29     0.254 C 
HETATM   30  O   MOL     1     -53.130   2.925  18.112  1.00 -0.19    -0.268 OA
HETATM   31  HN  MOL     1     -50.396   2.136  17.024  1.00 -0.09     0.162 HD
BRANCH  29  32
HETATM   32  C   MOL     1     -52.701   2.512  15.867  1.00 -0.21     0.061 A 
HETATM   33  C   MOL     1     -52.372   3.503  14.962  1.00 -0.36     0.038 A 
HETATM   34  C   MOL     1     -52.745   3.400  13.647  1.00 -0.38     0.117 A 
HETATM   35  N   MOL     1     -53.439   2.362  13.144  1.00 -0.12    -0.271 NA
HETATM   36  C   MOL     1     -53.757   1.401  14.027  1.00 -0.27     0.146 A 
HETATM   37  C   MOL     1     -53.422   1.430  15.370  1.00 -0.14     0.068 A 
BRANCH  37  38
HETATM   38  N   MOL     1     -53.819   0.385  16.214  1.00  0.07    -0.325 N 
HETATM   39  C   MOL     1     -54.953   0.343  16.943  1.00 -0.29     0.226 C 
HETATM   40  O   MOL     1     -55.813   1.212  16.945  1.00 -0.10    -0.273 OA
HETATM   41  HN  MOL     1     -53.278  -0.304  16.267  1.00  0.05     0.169 HD
BRANCH  39  42
HETATM   42  C   MOL     1     -55.088  -0.925  17.761  1.00 -0.34     0.141 C 
BRANCH  42  43
HETATM   43  C   MOL     1     -53.719  -1.455  18.146  1.00 -0.21    -0.048 A 
HETATM   44  C   MOL     1     -52.797  -0.623  18.742  1.00 -0.31     0.007 A 
HETATM   45  C   MOL     1     -51.556  -1.104  19.092  1.00 -0.36     0.002 A 
HETATM   46  C   MOL     1     -51.232  -2.419  18.846  1.00 -0.30     0.024 A 
HETATM   47  C   MOL     1     -52.152  -3.254  18.252  1.00 -0.25     0.034 A 
HETATM   48 CL   MOL     1     -51.746  -4.916  17.941  1.00 -0.85    -0.084 Cl
HETATM   49  C   MOL     1     -53.395  -2.771  17.902  1.00 -0.22     0.031 A 
ENDBRANCH  42  43
ENDBRANCH  39  42
ENDBRANCH  37  38
ENDBRANCH  29  32
ENDBRANCH  27  28
ENDBRANCH  26  27
ENDBRANCH  25  26
ENDBRANCH  24  25
ENDBRANCH  23  24
ENDBRANCH  22  23
ENDBRANCH  20  22
ENDBRANCH  13  20
ENDBRANCH   5  10
TORSDOF 13
ENDMDL
