MODEL 1
REMARK VINA RESULT:      -6.2      0.000      0.000
REMARK  4 active torsions:
REMARK  status: ('A' for Active; 'I' for Inactive)
REMARK    1  A    between atoms: O_2  and  C_9 
REMARK    2  A    between atoms: O_3  and  C_11 
REMARK    3  A    between atoms: O_4  and  C_14 
REMARK    4  A    between atoms: C_8  and  C_13 
ROOT
HETATM    1  O   UNK     0     -44.468   0.047  17.708  0.00  0.00    -0.306 OA
HETATM    2  O   UNK     0     -47.134  -0.873  20.649  0.00  0.00    -0.287 OA
HETATM    3  C   UNK     0     -46.543  -1.032  18.367  0.00  0.00     0.084 A 
HETATM    4  C   UNK     0     -45.591  -0.684  17.410  0.00  0.00     0.129 A 
HETATM    5  C   UNK     0     -44.280   0.463  19.017  0.00  0.00     0.090 A 
HETATM    6  C   UNK     0     -45.756  -1.084  16.083  0.00  0.00     0.136 A 
HETATM    7  C   UNK     0     -46.341  -0.601  19.758  0.00  0.00     0.190 A 
HETATM    8  C   UNK     0     -47.666  -1.779  18.006  0.00  0.00     0.085 A 
HETATM    9  C   UNK     0     -45.120   0.186  20.026  0.00  0.00     0.094 A 
HETATM   10  C   UNK     0     -46.877  -1.830  15.718  0.00  0.00     0.104 A 
HETATM   11  C   UNK     0     -47.830  -2.177  16.678  0.00  0.00     0.077 A 
ENDROOT
BRANCH   5  12
HETATM   12  C   UNK     0     -43.040   1.237  19.228  0.00  0.00    -0.002 A 
HETATM   13  C   UNK     0     -42.842   2.443  18.553  0.00  0.00     0.014 A 
HETATM   14  C   UNK     0     -41.672   3.175  18.752  0.00  0.00     0.001 A 
HETATM   15  C   UNK     0     -40.695   2.702  19.628  0.00  0.00     0.000 A 
HETATM   16  C   UNK     0     -40.889   1.499  20.305  0.00  0.00     0.001 A 
HETATM   17  C   UNK     0     -42.060   0.767  20.106  0.00  0.00     0.014 A 
ENDBRANCH   5  12
BRANCH   6  18
HETATM   18  O   UNK     0     -44.829  -0.748  15.142  0.00  0.00    -0.351 OA
HETATM   19  C   UNK     0     -43.859  -1.739  14.806  0.00  0.00     0.210 C 
ENDBRANCH   6  18
BRANCH   8  20
HETATM   20  O   UNK     0     -48.623  -2.145  18.903  0.00  0.00    -0.360 OA
HETATM   21  H   UNK     0     -49.239  -2.777  18.504  0.00  0.00     0.217 HD
ENDBRANCH   8  20
BRANCH  10  22
HETATM   22  O   UNK     0     -47.054  -2.227  14.428  0.00  0.00    -0.358 OA
HETATM   23  H   UNK     0     -46.283  -1.951  13.902  0.00  0.00     0.217 HD
ENDBRANCH  10  22
TORSDOF 4
ENDMDL
MODEL 2
REMARK VINA RESULT:      -6.2      1.328      1.679
REMARK  4 active torsions:
REMARK  status: ('A' for Active; 'I' for Inactive)
REMARK    1  A    between atoms: O_2  and  C_9 
REMARK    2  A    between atoms: O_3  and  C_11 
REMARK    3  A    between atoms: O_4  and  C_14 
REMARK    4  A    between atoms: C_8  and  C_13 
ROOT
HETATM    1  O   UNK     0     -44.521   0.101  17.769  0.00  0.00    -0.306 OA
HETATM    2  O   UNK     0     -48.011   1.729  19.098  0.00  0.00    -0.287 OA
HETATM    3  C   UNK     0     -46.948   0.167  17.679  0.00  0.00     0.084 A 
HETATM    4  C   UNK     0     -45.719  -0.346  17.269  0.00  0.00     0.129 A 
HETATM    5  C   UNK     0     -44.538   1.114  18.716  0.00  0.00     0.090 A 
HETATM    6  C   UNK     0     -45.670  -1.362  16.314  0.00  0.00     0.136 A 
HETATM    7  C   UNK     0     -46.969   1.234  18.690  0.00  0.00     0.190 A 
HETATM    8  C   UNK     0     -48.136  -0.327  17.137  0.00  0.00     0.085 A 
HETATM    9  C   UNK     0     -45.655   1.683  19.194  0.00  0.00     0.094 A 
HETATM   10  C   UNK     0     -46.855  -1.858  15.769  0.00  0.00     0.104 A 
HETATM   11  C   UNK     0     -48.086  -1.342  16.180  0.00  0.00     0.077 A 
ENDROOT
BRANCH   5  12
HETATM   12  C   UNK     0     -43.197   1.515  19.188  0.00  0.00    -0.002 A 
HETATM   13  C   UNK     0     -42.530   0.744  20.143  0.00  0.00     0.014 A 
HETATM   14  C   UNK     0     -41.264   1.122  20.589  0.00  0.00     0.001 A 
HETATM   15  C   UNK     0     -40.660   2.272  20.081  0.00  0.00     0.000 A 
HETATM   16  C   UNK     0     -41.323   3.045  19.128  0.00  0.00     0.001 A 
HETATM   17  C   UNK     0     -42.590   2.666  18.682  0.00  0.00     0.014 A 
ENDBRANCH   5  12
BRANCH   6  18
HETATM   18  O   UNK     0     -44.472  -1.870  15.908  0.00  0.00    -0.351 OA
HETATM   19  C   UNK     0     -43.949  -1.386  14.672  0.00  0.00     0.210 C 
ENDBRANCH   6  18
BRANCH   8  20
HETATM   20  O   UNK     0     -49.361   0.140  17.505  0.00  0.00    -0.360 OA
HETATM   21  H   UNK     0     -49.691   0.778  16.855  0.00  0.00     0.217 HD
ENDBRANCH   8  20
BRANCH  10  22
HETATM   22  O   UNK     0     -46.826  -2.848  14.834  0.00  0.00    -0.358 OA
HETATM   23  H   UNK     0     -47.608  -2.768  14.262  0.00  0.00     0.217 HD
ENDBRANCH  10  22
TORSDOF 4
ENDMDL
MODEL 3
REMARK VINA RESULT:      -6.2      2.395      4.579
REMARK  4 active torsions:
REMARK  status: ('A' for Active; 'I' for Inactive)
REMARK    1  A    between atoms: O_2  and  C_9 
REMARK    2  A    between atoms: O_3  and  C_11 
REMARK    3  A    between atoms: O_4  and  C_14 
REMARK    4  A    between atoms: C_8  and  C_13 
ROOT
HETATM    1  O   UNK     0     -46.938  -2.439  17.170  0.00  0.00    -0.306 OA
HETATM    2  O   UNK     0     -48.007  -0.276  13.887  0.00  0.00    -0.287 OA
HETATM    3  C   UNK     0     -48.454  -2.118  15.299  0.00  0.00     0.084 A 
HETATM    4  C   UNK     0     -48.034  -2.812  16.432  0.00  0.00     0.129 A 
HETATM    5  C   UNK     0     -46.215  -1.328  16.763  0.00  0.00     0.090 A 
HETATM    6  C   UNK     0     -48.738  -3.937  16.862  0.00  0.00     0.136 A 
HETATM    7  C   UNK     0     -47.694  -0.934  14.870  0.00  0.00     0.190 A 
HETATM    8  C   UNK     0     -49.577  -2.542  14.587  0.00  0.00     0.085 A 
HETATM    9  C   UNK     0     -46.523  -0.576  15.696  0.00  0.00     0.094 A 
HETATM   10  C   UNK     0     -49.862  -4.365  16.153  0.00  0.00     0.104 A 
HETATM   11  C   UNK     0     -50.280  -3.668  15.018  0.00  0.00     0.077 A 
ENDROOT
BRANCH   5  12
HETATM   12  C   UNK     0     -45.061  -1.014  17.630  0.00  0.00    -0.002 A 
HETATM   13  C   UNK     0     -44.215  -2.034  18.070  0.00  0.00     0.014 A 
HETATM   14  C   UNK     0     -43.125  -1.738  18.887  0.00  0.00     0.001 A 
HETATM   15  C   UNK     0     -42.877  -0.418  19.268  0.00  0.00     0.000 A 
HETATM   16  C   UNK     0     -43.720   0.604  18.831  0.00  0.00     0.001 A 
HETATM   17  C   UNK     0     -44.810   0.306  18.013  0.00  0.00     0.014 A 
ENDBRANCH   5  12
BRANCH   6  18
HETATM   18  O   UNK     0     -48.334  -4.621  17.970  0.00  0.00    -0.351 OA
HETATM   19  C   UNK     0     -47.980  -5.990  17.791  0.00  0.00     0.210 C 
ENDBRANCH   6  18
BRANCH   8  20
HETATM   20  O   UNK     0     -50.028  -1.898  13.475  0.00  0.00    -0.360 OA
HETATM   21  H   UNK     0     -50.992  -1.968  13.408  0.00  0.00     0.217 HD
ENDBRANCH   8  20
BRANCH  10  22
HETATM   22  O   UNK     0     -50.559  -5.461  16.559  0.00  0.00    -0.358 OA
HETATM   23  H   UNK     0     -49.949  -6.085  16.988  0.00  0.00     0.217 HD
ENDBRANCH  10  22
TORSDOF 4
ENDMDL
MODEL 4
REMARK VINA RESULT:      -6.0      1.647      3.496
REMARK  4 active torsions:
REMARK  status: ('A' for Active; 'I' for Inactive)
REMARK    1  A    between atoms: O_2  and  C_9 
REMARK    2  A    between atoms: O_3  and  C_11 
REMARK    3  A    between atoms: O_4  and  C_14 
REMARK    4  A    between atoms: C_8  and  C_13 
ROOT
HETATM    1  O   UNK     0     -46.053   0.135  17.912  0.00  0.00    -0.306 OA
HETATM    2  O   UNK     0     -44.988  -2.171  14.726  0.00  0.00    -0.287 OA
HETATM    3  C   UNK     0     -46.727  -1.186  15.988  0.00  0.00     0.084 A 
HETATM    4  C   UNK     0     -47.021  -0.389  17.093  0.00  0.00     0.129 A 
HETATM    5  C   UNK     0     -44.725  -0.149  17.630  0.00  0.00     0.090 A 
HETATM    6  C   UNK     0     -48.348  -0.091  17.405  0.00  0.00     0.136 A 
HETATM    7  C   UNK     0     -45.319  -1.482  15.681  0.00  0.00     0.190 A 
HETATM    8  C   UNK     0     -47.754  -1.692  15.188  0.00  0.00     0.085 A 
HETATM    9  C   UNK     0     -44.316  -0.897  16.593  0.00  0.00     0.094 A 
HETATM   10  C   UNK     0     -49.377  -0.595  16.608  0.00  0.00     0.104 A 
HETATM   11  C   UNK     0     -49.080  -1.394  15.502  0.00  0.00     0.077 A 
ENDROOT
BRANCH   5  12
HETATM   12  C   UNK     0     -43.767   0.468  18.570  0.00  0.00    -0.002 A 
HETATM   13  C   UNK     0     -43.472   1.830  18.477  0.00  0.00     0.014 A 
HETATM   14  C   UNK     0     -42.568   2.414  19.364  0.00  0.00     0.001 A 
HETATM   15  C   UNK     0     -41.956   1.637  20.348  0.00  0.00     0.000 A 
HETATM   16  C   UNK     0     -42.248   0.276  20.444  0.00  0.00     0.001 A 
HETATM   17  C   UNK     0     -43.152  -0.307  19.556  0.00  0.00     0.014 A 
ENDBRANCH   5  12
BRANCH   6  18
HETATM   18  O   UNK     0     -48.644   0.688  18.483  0.00  0.00    -0.351 OA
HETATM   19  C   UNK     0     -48.869   0.019  19.723  0.00  0.00     0.210 C 
ENDBRANCH   6  18
BRANCH   8  20
HETATM   20  O   UNK     0     -47.518  -2.474  14.099  0.00  0.00    -0.360 OA
HETATM   21  H   UNK     0     -46.971  -3.237  14.339  0.00  0.00     0.217 HD
ENDBRANCH   8  20
BRANCH  10  22
HETATM   22  O   UNK     0     -50.678  -0.315  16.900  0.00  0.00    -0.358 OA
HETATM   23  H   UNK     0     -51.254  -0.837  16.315  0.00  0.00     0.217 HD
ENDBRANCH  10  22
TORSDOF 4
ENDMDL
MODEL 5
REMARK VINA RESULT:      -5.6      2.623      4.278
REMARK  4 active torsions:
REMARK  status: ('A' for Active; 'I' for Inactive)
REMARK    1  A    between atoms: O_2  and  C_9 
REMARK    2  A    between atoms: O_3  and  C_11 
REMARK    3  A    between atoms: O_4  and  C_14 
REMARK    4  A    between atoms: C_8  and  C_13 
ROOT
HETATM    1  O   UNK     0     -46.844   0.832  18.249  0.00  0.00    -0.306 OA
HETATM    2  O   UNK     0     -43.041  -0.515  18.812  0.00  0.00    -0.287 OA
HETATM    3  C   UNK     0     -45.022  -0.603  17.527  0.00  0.00     0.084 A 
HETATM    4  C   UNK     0     -46.315  -0.100  17.392  0.00  0.00     0.129 A 
HETATM    5  C   UNK     0     -46.060   1.284  19.299  0.00  0.00     0.090 A 
HETATM    6  C   UNK     0     -47.129  -0.540  16.348  0.00  0.00     0.136 A 
HETATM    7  C   UNK     0     -44.185  -0.119  18.635  0.00  0.00     0.190 A 
HETATM    8  C   UNK     0     -44.534  -1.550  16.624  0.00  0.00     0.085 A 
HETATM    9  C   UNK     0     -44.802   0.881  19.530  0.00  0.00     0.094 A 
HETATM   10  C   UNK     0     -46.646  -1.486  15.443  0.00  0.00     0.104 A 
HETATM   11  C   UNK     0     -45.351  -1.990  15.581  0.00  0.00     0.077 A 
ENDROOT
BRANCH   5  12
HETATM   12  C   UNK     0     -46.725   2.287  20.156  0.00  0.00    -0.002 A 
HETATM   13  C   UNK     0     -46.256   2.527  21.449  0.00  0.00     0.014 A 
HETATM   14  C   UNK     0     -46.883   3.474  22.258  0.00  0.00     0.001 A 
HETATM   15  C   UNK     0     -47.981   4.186  21.776  0.00  0.00     0.000 A 
HETATM   16  C   UNK     0     -48.453   3.949  20.485  0.00  0.00     0.001 A 
HETATM   17  C   UNK     0     -47.826   3.001  19.676  0.00  0.00     0.014 A 
ENDBRANCH   5  12
BRANCH   6  18
HETATM   18  O   UNK     0     -48.394  -0.051  16.208  0.00  0.00    -0.351 OA
HETATM   19  C   UNK     0     -49.442  -0.778  16.847  0.00  0.00     0.210 C 
ENDBRANCH   6  18
BRANCH   8  20
HETATM   20  O   UNK     0     -43.280  -2.071  16.713  0.00  0.00    -0.360 OA
HETATM   21  H   UNK     0     -43.143  -2.748  16.034  0.00  0.00     0.217 HD
ENDBRANCH   8  20
BRANCH  10  22
HETATM   22  O   UNK     0     -47.429  -1.927  14.420  0.00  0.00    -0.358 OA
HETATM   23  H   UNK     0     -47.373  -1.295  13.682  0.00  0.00     0.217 HD
ENDBRANCH  10  22
TORSDOF 4
ENDMDL
MODEL 6
REMARK VINA RESULT:      -5.4      2.773      4.918
REMARK  4 active torsions:
REMARK  status: ('A' for Active; 'I' for Inactive)
REMARK    1  A    between atoms: O_2  and  C_9 
REMARK    2  A    between atoms: O_3  and  C_11 
REMARK    3  A    between atoms: O_4  and  C_14 
REMARK    4  A    between atoms: C_8  and  C_13 
ROOT
HETATM    1  O   UNK     0     -46.906   0.303  18.213  0.00  0.00    -0.306 OA
HETATM    2  O   UNK     0     -44.184  -0.970  20.964  0.00  0.00    -0.287 OA
HETATM    3  C   UNK     0     -44.850  -0.895  18.698  0.00  0.00     0.084 A 
HETATM    4  C   UNK     0     -45.817  -0.428  17.810  0.00  0.00     0.129 A 
HETATM    5  C   UNK     0     -47.052   0.581  19.563  0.00  0.00     0.090 A 
HETATM    6  C   UNK     0     -45.701  -0.697  16.446  0.00  0.00     0.136 A 
HETATM    7  C   UNK     0     -44.996  -0.594  20.129  0.00  0.00     0.190 A 
HETATM    8  C   UNK     0     -43.761  -1.635  18.231  0.00  0.00     0.085 A 
HETATM    9  C   UNK     0     -46.186   0.193  20.512  0.00  0.00     0.094 A 
HETATM   10  C   UNK     0     -44.614  -1.436  15.975  0.00  0.00     0.104 A 
HETATM   11  C   UNK     0     -43.647  -1.904  16.866  0.00  0.00     0.077 A 
ENDROOT
BRANCH   5  12
HETATM   12  C   UNK     0     -48.253   1.378  19.886  0.00  0.00    -0.002 A 
HETATM   13  C   UNK     0     -48.528   1.729  21.209  0.00  0.00     0.014 A 
HETATM   14  C   UNK     0     -49.662   2.481  21.514  0.00  0.00     0.001 A 
HETATM   15  C   UNK     0     -50.525   2.885  20.496  0.00  0.00     0.000 A 
HETATM   16  C   UNK     0     -50.254   2.537  19.173  0.00  0.00     0.001 A 
HETATM   17  C   UNK     0     -49.120   1.784  18.868  0.00  0.00     0.014 A 
ENDBRANCH   5  12
BRANCH   6  18
HETATM   18  O   UNK     0     -46.642  -0.243  15.571  0.00  0.00    -0.351 OA
HETATM   19  C   UNK     0     -47.724  -1.123  15.270  0.00  0.00     0.210 C 
ENDBRANCH   6  18
BRANCH   8  20
HETATM   20  O   UNK     0     -42.790  -2.112  19.058  0.00  0.00    -0.360 OA
HETATM   21  H   UNK     0     -42.940  -1.814  19.967  0.00  0.00     0.217 HD
ENDBRANCH   8  20
BRANCH  10  22
HETATM   22  O   UNK     0     -44.486  -1.709  14.647  0.00  0.00    -0.358 OA
HETATM   23  H   UNK     0     -44.071  -0.947  14.205  0.00  0.00     0.217 HD
ENDBRANCH  10  22
TORSDOF 4
ENDMDL
MODEL 7
REMARK VINA RESULT:      -5.4      1.981      4.196
REMARK  4 active torsions:
REMARK  status: ('A' for Active; 'I' for Inactive)
REMARK    1  A    between atoms: O_2  and  C_9 
REMARK    2  A    between atoms: O_3  and  C_11 
REMARK    3  A    between atoms: O_4  and  C_14 
REMARK    4  A    between atoms: C_8  and  C_13 
ROOT
HETATM    1  O   UNK     0     -46.833  -1.755  18.179  0.00  0.00    -0.306 OA
HETATM    2  O   UNK     0     -46.223  -0.242  14.445  0.00  0.00    -0.287 OA
HETATM    3  C   UNK     0     -47.560  -1.572  15.868  0.00  0.00     0.084 A 
HETATM    4  C   UNK     0     -47.710  -2.055  17.167  0.00  0.00     0.129 A 
HETATM    5  C   UNK     0     -45.746  -0.943  17.891  0.00  0.00     0.090 A 
HETATM    6  C   UNK     0     -48.790  -2.879  17.486  0.00  0.00     0.136 A 
HETATM    7  C   UNK     0     -46.415  -0.703  15.562  0.00  0.00     0.190 A 
HETATM    8  C   UNK     0     -48.486  -1.910  14.878  0.00  0.00     0.085 A 
HETATM    9  C   UNK     0     -45.498  -0.413  16.683  0.00  0.00     0.094 A 
HETATM   10  C   UNK     0     -49.717  -3.219  16.499  0.00  0.00     0.104 A 
HETATM   11  C   UNK     0     -49.565  -2.735  15.198  0.00  0.00     0.077 A 
ENDROOT
BRANCH   5  12
HETATM   12  C   UNK     0     -44.870  -0.679  19.051  0.00  0.00    -0.002 A 
HETATM   13  C   UNK     0     -45.388  -0.728  20.347  0.00  0.00     0.014 A 
HETATM   14  C   UNK     0     -44.562  -0.481  21.442  0.00  0.00     0.001 A 
HETATM   15  C   UNK     0     -43.213  -0.184  21.245  0.00  0.00     0.000 A 
HETATM   16  C   UNK     0     -42.692  -0.134  19.952  0.00  0.00     0.001 A 
HETATM   17  C   UNK     0     -43.519  -0.381  18.856  0.00  0.00     0.014 A 
ENDBRANCH   5  12
BRANCH   6  18
HETATM   18  O   UNK     0     -48.944  -3.354  18.754  0.00  0.00    -0.351 OA
HETATM   19  C   UNK     0     -49.774  -2.597  19.633  0.00  0.00     0.210 C 
ENDBRANCH   6  18
BRANCH   8  20
HETATM   20  O   UNK     0     -48.384  -1.464  13.596  0.00  0.00    -0.360 OA
HETATM   21  H   UNK     0     -48.285  -0.500  13.577  0.00  0.00     0.217 HD
ENDBRANCH   8  20
BRANCH  10  22
HETATM   22  O   UNK     0     -50.776  -4.023  16.793  0.00  0.00    -0.358 OA
HETATM   23  H   UNK     0     -50.479  -4.949  16.800  0.00  0.00     0.217 HD
ENDBRANCH  10  22
TORSDOF 4
ENDMDL
MODEL 8
REMARK VINA RESULT:      -5.3     15.246     18.775
REMARK  4 active torsions:
REMARK  status: ('A' for Active; 'I' for Inactive)
REMARK    1  A    between atoms: O_2  and  C_9 
REMARK    2  A    between atoms: O_3  and  C_11 
REMARK    3  A    between atoms: O_4  and  C_14 
REMARK    4  A    between atoms: C_8  and  C_13 
ROOT
HETATM    1  O   UNK     0     -57.562  -1.476   5.525  0.00  0.00    -0.306 OA
HETATM    2  O   UNK     0     -60.756  -4.000   5.349  0.00  0.00    -0.287 OA
HETATM    3  C   UNK     0     -58.971  -3.122   6.625  0.00  0.00     0.084 A 
HETATM    4  C   UNK     0     -57.893  -2.239   6.618  0.00  0.00     0.129 A 
HETATM    5  C   UNK     0     -58.331  -1.599   4.378  0.00  0.00     0.090 A 
HETATM    6  C   UNK     0     -57.098  -2.098   7.756  0.00  0.00     0.136 A 
HETATM    7  C   UNK     0     -59.794  -3.247   5.412  0.00  0.00     0.190 A 
HETATM    8  C   UNK     0     -59.263  -3.872   7.766  0.00  0.00     0.085 A 
HETATM    9  C   UNK     0     -59.395  -2.408   4.264  0.00  0.00     0.094 A 
HETATM   10  C   UNK     0     -57.385  -2.847   8.898  0.00  0.00     0.104 A 
HETATM   11  C   UNK     0     -58.465  -3.731   8.903  0.00  0.00     0.077 A 
ENDROOT
BRANCH   5  12
HETATM   12  C   UNK     0     -57.891  -0.731   3.266  0.00  0.00    -0.002 A 
HETATM   13  C   UNK     0     -57.954  -1.191   1.949  0.00  0.00     0.014 A 
HETATM   14  C   UNK     0     -57.540  -0.372   0.899  0.00  0.00     0.001 A 
HETATM   15  C   UNK     0     -57.061   0.911   1.164  0.00  0.00     0.000 A 
HETATM   16  C   UNK     0     -56.997   1.375   2.477  0.00  0.00     0.001 A 
HETATM   17  C   UNK     0     -57.411   0.555   3.527  0.00  0.00     0.014 A 
ENDBRANCH   5  12
BRANCH   6  18
HETATM   18  O   UNK     0     -56.042  -1.236   7.757  0.00  0.00    -0.351 OA
HETATM   19  C   UNK     0     -56.290   0.089   8.222  0.00  0.00     0.210 C 
ENDBRANCH   6  18
BRANCH   8  20
HETATM   20  O   UNK     0     -60.304  -4.747   7.823  0.00  0.00    -0.360 OA
HETATM   21  H   UNK     0     -60.531  -5.065   6.936  0.00  0.00     0.217 HD
ENDBRANCH   8  20
BRANCH  10  22
HETATM   22  O   UNK     0     -56.619  -2.723  10.017  0.00  0.00    -0.358 OA
HETATM   23  H   UNK     0     -55.701  -2.535   9.754  0.00  0.00     0.217 HD
ENDBRANCH  10  22
TORSDOF 4
ENDMDL
MODEL 9
REMARK VINA RESULT:      -5.1     14.194     17.776
REMARK  4 active torsions:
REMARK  status: ('A' for Active; 'I' for Inactive)
REMARK    1  A    between atoms: O_2  and  C_9 
REMARK    2  A    between atoms: O_3  and  C_11 
REMARK    3  A    between atoms: O_4  and  C_14 
REMARK    4  A    between atoms: C_8  and  C_13 
ROOT
HETATM    1  O   UNK     0     -57.065  -0.157   6.203  0.00  0.00    -0.306 OA
HETATM    2  O   UNK     0     -58.479  -3.736   7.541  0.00  0.00    -0.287 OA
HETATM    3  C   UNK     0     -57.383  -1.706   8.048  0.00  0.00     0.084 A 
HETATM    4  C   UNK     0     -56.923  -0.498   7.525  0.00  0.00     0.129 A 
HETATM    5  C   UNK     0     -57.686  -1.059   5.352  0.00  0.00     0.090 A 
HETATM    6  C   UNK     0     -56.290   0.427   8.355  0.00  0.00     0.136 A 
HETATM    7  C   UNK     0     -58.050  -2.660   7.150  0.00  0.00     0.190 A 
HETATM    8  C   UNK     0     -57.212  -1.999   9.402  0.00  0.00     0.085 A 
HETATM    9  C   UNK     0     -58.175  -2.248   5.737  0.00  0.00     0.094 A 
HETATM   10  C   UNK     0     -56.117   0.137   9.710  0.00  0.00     0.104 A 
HETATM   11  C   UNK     0     -56.577  -1.073  10.232  0.00  0.00     0.077 A 
ENDROOT
BRANCH   5  12
HETATM   12  C   UNK     0     -57.791  -0.591   3.955  0.00  0.00    -0.002 A 
HETATM   13  C   UNK     0     -57.427   0.716   3.623  0.00  0.00     0.014 A 
HETATM   14  C   UNK     0     -57.525   1.159   2.305  0.00  0.00     0.001 A 
HETATM   15  C   UNK     0     -57.987   0.295   1.312  0.00  0.00     0.000 A 
HETATM   16  C   UNK     0     -58.352  -1.011   1.638  0.00  0.00     0.001 A 
HETATM   17  C   UNK     0     -58.253  -1.454   2.958  0.00  0.00     0.014 A 
ENDBRANCH   5  12
BRANCH   6  18
HETATM   18  O   UNK     0     -55.839   1.610   7.852  0.00  0.00    -0.351 OA
HETATM   19  C   UNK     0     -56.739   2.716   7.891  0.00  0.00     0.210 C 
ENDBRANCH   6  18
BRANCH   8  20
HETATM   20  O   UNK     0     -57.643  -3.163   9.961  0.00  0.00    -0.360 OA
HETATM   21  H   UNK     0     -58.568  -3.331   9.728  0.00  0.00     0.217 HD
ENDBRANCH   8  20
BRANCH  10  22
HETATM   22  O   UNK     0     -55.499   1.028  10.534  0.00  0.00    -0.358 OA
HETATM   23  H   UNK     0     -54.548   1.045  10.328  0.00  0.00     0.217 HD
ENDBRANCH  10  22
TORSDOF 4
ENDMDL
MODEL 10
REMARK VINA RESULT:      -5.1      2.715      4.529
REMARK  4 active torsions:
REMARK  status: ('A' for Active; 'I' for Inactive)
REMARK    1  A    between atoms: O_2  and  C_9 
REMARK    2  A    between atoms: O_3  and  C_11 
REMARK    3  A    between atoms: O_4  and  C_14 
REMARK    4  A    between atoms: C_8  and  C_13 
ROOT
HETATM    1  O   UNK     0     -46.658  -0.060  19.257  0.00  0.00    -0.306 OA
HETATM    2  O   UNK     0     -43.029  -1.907  19.387  0.00  0.00    -0.287 OA
HETATM    3  C   UNK     0     -44.829  -1.130  18.069  0.00  0.00     0.084 A 
HETATM    4  C   UNK     0     -46.068  -0.491  18.096  0.00  0.00     0.129 A 
HETATM    5  C   UNK     0     -45.995  -0.280  20.455  0.00  0.00     0.090 A 
HETATM    6  C   UNK     0     -46.761  -0.262  16.907  0.00  0.00     0.136 A 
HETATM    7  C   UNK     0     -44.120  -1.355  19.336  0.00  0.00     0.190 A 
HETATM    8  C   UNK     0     -44.275  -1.546  16.856  0.00  0.00     0.085 A 
HETATM    9  C   UNK     0     -44.798  -0.876  20.558  0.00  0.00     0.094 A 
HETATM   10  C   UNK     0     -46.211  -0.676  15.693  0.00  0.00     0.104 A 
HETATM   11  C   UNK     0     -44.971  -1.317  15.668  0.00  0.00     0.077 A 
ENDROOT
BRANCH   5  12
HETATM   12  C   UNK     0     -46.716   0.227  21.641  0.00  0.00    -0.002 A 
HETATM   13  C   UNK     0     -47.217   1.531  21.654  0.00  0.00     0.014 A 
HETATM   14  C   UNK     0     -47.898   2.010  22.772  0.00  0.00     0.001 A 
HETATM   15  C   UNK     0     -48.080   1.186  23.883  0.00  0.00     0.000 A 
HETATM   16  C   UNK     0     -47.582  -0.117  23.874  0.00  0.00     0.001 A 
HETATM   17  C   UNK     0     -46.901  -0.595  22.755  0.00  0.00     0.014 A 
ENDBRANCH   5  12
BRANCH   6  18
HETATM   18  O   UNK     0     -47.972   0.363  16.925  0.00  0.00    -0.351 OA
HETATM   19  C   UNK     0     -49.129  -0.469  16.968  0.00  0.00     0.210 C 
ENDBRANCH   6  18
BRANCH   8  20
HETATM   20  O   UNK     0     -43.070  -2.173  16.777  0.00  0.00    -0.360 OA
HETATM   21  H   UNK     0     -43.163  -3.117  16.976  0.00  0.00     0.217 HD
ENDBRANCH   8  20
BRANCH  10  22
HETATM   22  O   UNK     0     -46.876  -0.462  14.523  0.00  0.00    -0.358 OA
HETATM   23  H   UNK     0     -47.833  -0.504  14.690  0.00  0.00     0.217 HD
ENDBRANCH  10  22
TORSDOF 4
ENDMDL
