MODEL 1
REMARK VINA RESULT:      -7.0      0.000      0.000
REMARK  10 active torsions:
REMARK  status: ('A' for Active; 'I' for Inactive)
REMARK    1  A    between atoms: O_2  and  C_15 
REMARK    2  A    between atoms: O_2  and  C_18 
REMARK    3  A    between atoms: O_3  and  C_12 
REMARK    4  A    between atoms: O_4  and  C_13 
REMARK    5  A    between atoms: O_5  and  C_14 
REMARK    6  A    between atoms: O_6  and  C_17 
REMARK    7  A    between atoms: O_9  and  C_19 
REMARK    8  A    between atoms: O_10  and  C_23 
REMARK    9  A    between atoms: C_16  and  C_17 
REMARK   10  A    between atoms: C_25  and  C_27 
ROOT
HETATM    1  O   UNK     0     -49.510   0.250  14.109  0.00  0.00    -0.340 OA
HETATM    2  C   UNK     0     -51.959   1.738  14.314  0.00  0.00     0.183 C 
HETATM    3  C   UNK     0     -51.462   0.822  15.433  0.00  0.00     0.205 C 
HETATM    4  C   UNK     0     -50.814   2.174  13.399  0.00  0.00     0.189 C 
HETATM    5  C   UNK     0     -50.578  -0.297  14.880  0.00  0.00     0.299 C 
HETATM    6  C   UNK     0     -49.974   0.975  12.977  0.00  0.00     0.253 C 
ENDROOT
BRANCH   5   7
HETATM    7  O   UNK     0     -50.050  -1.028  15.985  0.00  0.00    -0.315 OA
BRANCH   7   8
HETATM    8  C   UNK     0     -48.690  -1.092  16.082  0.00  0.00     0.111 A 
HETATM    9  C   UNK     0     -48.011  -0.336  17.038  0.00  0.00     0.137 A 
HETATM   10  C   UNK     0     -46.620  -0.414  17.124  0.00  0.00     0.129 A 
HETATM   11  O   UNK     0     -46.009   0.353  18.083  0.00  0.00    -0.306 OA
HETATM   12  C   UNK     0     -45.915  -1.245  16.257  0.00  0.00     0.084 A 
HETATM   13  C   UNK     0     -44.629   0.291  18.197  0.00  0.00     0.090 A 
HETATM   14  C   UNK     0     -43.839  -0.465  17.418  0.00  0.00     0.094 A 
HETATM   15  C   UNK     0     -44.449  -1.307  16.369  0.00  0.00     0.190 A 
HETATM   16  O   UNK     0     -43.766  -2.014  15.640  0.00  0.00    -0.287 OA
HETATM   17  C   UNK     0     -46.591  -2.004  15.299  0.00  0.00     0.085 A 
HETATM   18  C   UNK     0     -47.981  -1.924  15.215  0.00  0.00     0.077 A 
BRANCH   9  19
HETATM   19  O   UNK     0     -48.709   0.476  17.884  0.00  0.00    -0.351 OA
HETATM   20  C   UNK     0     -49.204  -0.113  19.084  0.00  0.00     0.210 C 
ENDBRANCH   9  19
BRANCH  13  21
HETATM   21  C   UNK     0     -44.074   1.160  19.254  0.00  0.00    -0.002 A 
HETATM   22  C   UNK     0     -44.779   1.355  20.445  0.00  0.00     0.014 A 
HETATM   23  C   UNK     0     -44.255   2.174  21.444  0.00  0.00     0.001 A 
HETATM   24  C   UNK     0     -43.024   2.803  21.257  0.00  0.00     0.000 A 
HETATM   25  C   UNK     0     -42.317   2.612  20.069  0.00  0.00     0.001 A 
HETATM   26  C   UNK     0     -42.841   1.791  19.070  0.00  0.00     0.014 A 
ENDBRANCH  13  21
BRANCH  17  27
HETATM   27  O   UNK     0     -45.946  -2.831  14.429  0.00  0.00    -0.360 OA
HETATM   28  H   UNK     0     -45.733  -2.361  13.609  0.00  0.00     0.217 HD
ENDBRANCH  17  27
ENDBRANCH   7   8
ENDBRANCH   5   7
BRANCH   6  29
HETATM   29  C   UNK     0     -48.712   1.413  12.308  0.00  0.00     0.172 C 
HETATM   30  O   UNK     0     -48.584   2.441  11.656  0.00  0.00    -0.648 OA
BRANCH  29  31
HETATM   31  O   UNK     0     -47.721   0.514  12.515  0.00  0.00    -0.774 OA
HETATM   32  H   UNK     0     -48.028  -0.408  12.379  0.00  0.00     0.167 HD
ENDBRANCH  29  31
ENDBRANCH   6  29
BRANCH   3  33
HETATM   33  O   UNK     0     -52.580   0.225  16.088  0.00  0.00    -0.388 OA
HETATM   34  H   UNK     0     -52.833  -0.564  15.580  0.00  0.00     0.210 HD
ENDBRANCH   3  33
BRANCH   4  35
HETATM   35  O   UNK     0     -51.357   2.786  12.231  0.00  0.00    -0.390 OA
HETATM   36  H   UNK     0     -52.287   3.005  12.410  0.00  0.00     0.210 HD
ENDBRANCH   4  35
BRANCH   2  37
HETATM   37  O   UNK     0     -52.541   2.912  14.884  0.00  0.00    -0.390 OA
HETATM   38  H   UNK     0     -52.956   2.658  15.725  0.00  0.00     0.210 HD
ENDBRANCH   2  37
TORSDOF 10
ENDMDL
MODEL 2
REMARK VINA RESULT:      -6.9      3.702      6.376
REMARK  10 active torsions:
REMARK  status: ('A' for Active; 'I' for Inactive)
REMARK    1  A    between atoms: O_2  and  C_15 
REMARK    2  A    between atoms: O_2  and  C_18 
REMARK    3  A    between atoms: O_3  and  C_12 
REMARK    4  A    between atoms: O_4  and  C_13 
REMARK    5  A    between atoms: O_5  and  C_14 
REMARK    6  A    between atoms: O_6  and  C_17 
REMARK    7  A    between atoms: O_9  and  C_19 
REMARK    8  A    between atoms: O_10  and  C_23 
REMARK    9  A    between atoms: C_16  and  C_17 
REMARK   10  A    between atoms: C_25  and  C_27 
ROOT
HETATM    1  O   UNK     0     -51.599   1.277  13.655  0.00  0.00    -0.340 OA
HETATM    2  C   UNK     0     -50.045   3.235  12.237  0.00  0.00     0.183 C 
HETATM    3  C   UNK     0     -49.780   1.734  12.115  0.00  0.00     0.205 C 
HETATM    4  C   UNK     0     -51.472   3.512  12.709  0.00  0.00     0.189 C 
HETATM    5  C   UNK     0     -50.232   0.988  13.371  0.00  0.00     0.299 C 
HETATM    6  C   UNK     0     -51.816   2.657  13.922  0.00  0.00     0.253 C 
ENDROOT
BRANCH   5   7
HETATM    7  O   UNK     0     -50.074  -0.410  13.134  0.00  0.00    -0.315 OA
BRANCH   7   8
HETATM    8  C   UNK     0     -49.370  -1.113  14.067  0.00  0.00     0.111 A 
HETATM    9  C   UNK     0     -49.868  -2.314  14.575  0.00  0.00     0.137 A 
HETATM   10  C   UNK     0     -49.134  -3.021  15.529  0.00  0.00     0.129 A 
HETATM   11  O   UNK     0     -49.675  -4.193  15.990  0.00  0.00    -0.306 OA
HETATM   12  C   UNK     0     -47.909  -2.527  15.971  0.00  0.00     0.084 A 
HETATM   13  C   UNK     0     -48.966  -4.921  16.933  0.00  0.00     0.090 A 
HETATM   14  C   UNK     0     -47.781  -4.548  17.442  0.00  0.00     0.094 A 
HETATM   15  C   UNK     0     -47.158  -3.292  16.978  0.00  0.00     0.190 A 
HETATM   16  O   UNK     0     -46.077  -2.917  17.412  0.00  0.00    -0.287 OA
HETATM   17  C   UNK     0     -47.407  -1.326  15.465  0.00  0.00     0.085 A 
HETATM   18  C   UNK     0     -48.142  -0.621  14.512  0.00  0.00     0.077 A 
BRANCH   9  19
HETATM   19  O   UNK     0     -51.069  -2.791  14.137  0.00  0.00    -0.351 OA
HETATM   20  C   UNK     0     -52.239  -2.278  14.769  0.00  0.00     0.210 C 
ENDBRANCH   9  19
BRANCH  13  21
HETATM   21  C   UNK     0     -49.641  -6.161  17.366  0.00  0.00    -0.002 A 
HETATM   22  C   UNK     0     -48.930  -7.363  17.428  0.00  0.00     0.014 A 
HETATM   23  C   UNK     0     -49.567  -8.534  17.838  0.00  0.00     0.001 A 
HETATM   24  C   UNK     0     -50.917  -8.509  18.187  0.00  0.00     0.000 A 
HETATM   25  C   UNK     0     -51.630  -7.311  18.127  0.00  0.00     0.001 A 
HETATM   26  C   UNK     0     -50.993  -6.139  17.717  0.00  0.00     0.014 A 
ENDBRANCH  13  21
BRANCH  17  27
HETATM   27  O   UNK     0     -46.215  -0.802  15.867  0.00  0.00    -0.360 OA
HETATM   28  H   UNK     0     -45.523  -0.993  15.216  0.00  0.00     0.217 HD
ENDBRANCH  17  27
ENDBRANCH   7   8
ENDBRANCH   5   7
BRANCH   6  29
HETATM   29  C   UNK     0     -53.277   2.723  14.227  0.00  0.00     0.172 C 
HETATM   30  O   UNK     0     -53.820   3.607  14.876  0.00  0.00    -0.648 OA
BRANCH  29  31
HETATM   31  O   UNK     0     -53.928   1.663  13.691  0.00  0.00    -0.774 OA
HETATM   32  H   UNK     0     -54.853   1.600  14.010  0.00  0.00     0.167 HD
ENDBRANCH  29  31
ENDBRANCH   6  29
BRANCH   3  33
HETATM   33  O   UNK     0     -48.381   1.512  11.943  0.00  0.00    -0.388 OA
HETATM   34  H   UNK     0     -48.129   0.764  12.510  0.00  0.00     0.210 HD
ENDBRANCH   3  33
BRANCH   4  35
HETATM   35  O   UNK     0     -51.585   4.888  13.071  0.00  0.00    -0.390 OA
HETATM   36  H   UNK     0     -51.237   4.991  13.973  0.00  0.00     0.210 HD
ENDBRANCH   4  35
BRANCH   2  37
HETATM   37  O   UNK     0     -49.873   3.854  10.962  0.00  0.00    -0.390 OA
HETATM   38  H   UNK     0     -49.246   3.313  10.453  0.00  0.00     0.210 HD
ENDBRANCH   2  37
TORSDOF 10
ENDMDL
MODEL 3
REMARK VINA RESULT:      -6.9      3.525      5.985
REMARK  10 active torsions:
REMARK  status: ('A' for Active; 'I' for Inactive)
REMARK    1  A    between atoms: O_2  and  C_15 
REMARK    2  A    between atoms: O_2  and  C_18 
REMARK    3  A    between atoms: O_3  and  C_12 
REMARK    4  A    between atoms: O_4  and  C_13 
REMARK    5  A    between atoms: O_5  and  C_14 
REMARK    6  A    between atoms: O_6  and  C_17 
REMARK    7  A    between atoms: O_9  and  C_19 
REMARK    8  A    between atoms: O_10  and  C_23 
REMARK    9  A    between atoms: C_16  and  C_17 
REMARK   10  A    between atoms: C_25  and  C_27 
ROOT
HETATM    1  O   UNK     0     -47.883  -4.820  17.490  0.00  0.00    -0.340 OA
HETATM    2  C   UNK     0     -50.447  -5.043  16.213  0.00  0.00     0.183 C 
HETATM    3  C   UNK     0     -49.466  -3.916  15.887  0.00  0.00     0.205 C 
HETATM    4  C   UNK     0     -49.731  -6.249  16.820  0.00  0.00     0.189 C 
HETATM    5  C   UNK     0     -48.543  -3.627  17.072  0.00  0.00     0.299 C 
HETATM    6  C   UNK     0     -48.795  -5.814  17.940  0.00  0.00     0.253 C 
ENDROOT
BRANCH   5   7
HETATM    7  O   UNK     0     -47.578  -2.664  16.653  0.00  0.00    -0.315 OA
BRANCH   7   8
HETATM    8  C   UNK     0     -47.343  -1.623  17.504  0.00  0.00     0.111 A 
HETATM    9  C   UNK     0     -46.046  -1.151  17.706  0.00  0.00     0.137 A 
HETATM   10  C   UNK     0     -45.823  -0.085  18.579  0.00  0.00     0.129 A 
HETATM   11  O   UNK     0     -44.528   0.335  18.736  0.00  0.00    -0.306 OA
HETATM   12  C   UNK     0     -46.896   0.503  19.247  0.00  0.00     0.084 A 
HETATM   13  C   UNK     0     -44.277   1.396  19.593  0.00  0.00     0.090 A 
HETATM   14  C   UNK     0     -45.221   2.039  20.297  0.00  0.00     0.094 A 
HETATM   15  C   UNK     0     -46.632   1.623  20.163  0.00  0.00     0.190 A 
HETATM   16  O   UNK     0     -47.525   2.185  20.783  0.00  0.00    -0.287 OA
HETATM   17  C   UNK     0     -48.195   0.033  19.048  0.00  0.00     0.085 A 
HETATM   18  C   UNK     0     -48.415  -1.032  18.175  0.00  0.00     0.077 A 
BRANCH   9  19
HETATM   19  O   UNK     0     -45.001  -1.732  17.048  0.00  0.00    -0.351 OA
HETATM   20  C   UNK     0     -44.692  -1.227  15.751  0.00  0.00     0.210 C 
ENDBRANCH   9  19
BRANCH  13  21
HETATM   21  C   UNK     0     -42.849   1.761  19.693  0.00  0.00    -0.002 A 
HETATM   22  C   UNK     0     -42.350   2.847  18.969  0.00  0.00     0.014 A 
HETATM   23  C   UNK     0     -41.002   3.193  19.065  0.00  0.00     0.001 A 
HETATM   24  C   UNK     0     -40.149   2.455  19.885  0.00  0.00     0.000 A 
HETATM   25  C   UNK     0     -40.643   1.370  20.609  0.00  0.00     0.001 A 
HETATM   26  C   UNK     0     -41.992   1.024  20.514  0.00  0.00     0.014 A 
ENDBRANCH  13  21
BRANCH  17  27
HETATM   27  O   UNK     0     -49.276   0.574  19.678  0.00  0.00    -0.360 OA
HETATM   28  H   UNK     0     -49.546   0.020  20.426  0.00  0.00     0.217 HD
ENDBRANCH  17  27
ENDBRANCH   7   8
ENDBRANCH   5   7
BRANCH   6  29
HETATM   29  C   UNK     0     -47.902  -6.937  18.359  0.00  0.00     0.172 C 
HETATM   30  O   UNK     0     -47.322  -7.009  19.433  0.00  0.00    -0.648 OA
BRANCH  29  31
HETATM   31  O   UNK     0     -47.815  -7.870  17.381  0.00  0.00    -0.774 OA
HETATM   32  H   UNK     0     -47.721  -8.776  17.745  0.00  0.00     0.167 HD
ENDBRANCH  29  31
ENDBRANCH   6  29
BRANCH   3  33
HETATM   33  O   UNK     0     -50.193  -2.726  15.586  0.00  0.00    -0.388 OA
HETATM   34  H   UNK     0     -50.275  -2.215  16.409  0.00  0.00     0.210 HD
ENDBRANCH   3  33
BRANCH   4  35
HETATM   35  O   UNK     0     -50.702  -7.147  17.356  0.00  0.00    -0.390 OA
HETATM   36  H   UNK     0     -51.470  -7.152  16.760  0.00  0.00     0.210 HD
ENDBRANCH   4  35
BRANCH   2  37
HETATM   37  O   UNK     0     -51.095  -5.470  15.013  0.00  0.00    -0.390 OA
HETATM   38  H   UNK     0     -51.090  -4.723  14.392  0.00  0.00     0.210 HD
ENDBRANCH   2  37
TORSDOF 10
ENDMDL
MODEL 4
REMARK VINA RESULT:      -6.8      2.041      4.771
REMARK  10 active torsions:
REMARK  status: ('A' for Active; 'I' for Inactive)
REMARK    1  A    between atoms: O_2  and  C_15 
REMARK    2  A    between atoms: O_2  and  C_18 
REMARK    3  A    between atoms: O_3  and  C_12 
REMARK    4  A    between atoms: O_4  and  C_13 
REMARK    5  A    between atoms: O_5  and  C_14 
REMARK    6  A    between atoms: O_6  and  C_17 
REMARK    7  A    between atoms: O_9  and  C_19 
REMARK    8  A    between atoms: O_10  and  C_23 
REMARK    9  A    between atoms: C_16  and  C_17 
REMARK   10  A    between atoms: C_25  and  C_27 
ROOT
HETATM    1  O   UNK     0     -49.083  -1.070  16.633  0.00  0.00    -0.340 OA
HETATM    2  C   UNK     0     -48.400  -1.888  13.964  0.00  0.00     0.183 C 
HETATM    3  C   UNK     0     -47.622  -2.365  15.191  0.00  0.00     0.205 C 
HETATM    4  C   UNK     0     -49.808  -1.427  14.341  0.00  0.00     0.189 C 
HETATM    5  C   UNK     0     -47.718  -1.355  16.335  0.00  0.00     0.299 C 
HETATM    6  C   UNK     0     -49.766  -0.480  15.533  0.00  0.00     0.253 C 
ENDROOT
BRANCH   5   7
HETATM    7  O   UNK     0     -47.084  -1.923  17.479  0.00  0.00    -0.315 OA
BRANCH   7   8
HETATM    8  C   UNK     0     -46.805  -1.073  18.509  0.00  0.00     0.111 A 
HETATM    9  C   UNK     0     -45.610  -0.352  18.530  0.00  0.00     0.137 A 
HETATM   10  C   UNK     0     -45.341   0.514  19.591  0.00  0.00     0.129 A 
HETATM   11  O   UNK     0     -44.151   1.195  19.556  0.00  0.00    -0.306 OA
HETATM   12  C   UNK     0     -46.264   0.656  20.625  0.00  0.00     0.084 A 
HETATM   13  C   UNK     0     -43.859   2.067  20.593  0.00  0.00     0.090 A 
HETATM   14  C   UNK     0     -44.661   2.285  21.647  0.00  0.00     0.094 A 
HETATM   15  C   UNK     0     -45.953   1.574  21.732  0.00  0.00     0.190 A 
HETATM   16  O   UNK     0     -46.716   1.746  22.672  0.00  0.00    -0.287 OA
HETATM   17  C   UNK     0     -47.460  -0.064  20.608  0.00  0.00     0.085 A 
HETATM   18  C   UNK     0     -47.727  -0.929  19.547  0.00  0.00     0.077 A 
BRANCH   9  19
HETATM   19  O   UNK     0     -44.712  -0.496  17.513  0.00  0.00    -0.351 OA
HETATM   20  C   UNK     0     -43.813  -1.600  17.596  0.00  0.00     0.210 C 
ENDBRANCH   9  19
BRANCH  13  21
HETATM   21  C   UNK     0     -42.552   2.742  20.460  0.00  0.00    -0.002 A 
HETATM   22  C   UNK     0     -41.938   2.844  19.208  0.00  0.00     0.014 A 
HETATM   23  C   UNK     0     -40.705   3.482  19.082  0.00  0.00     0.001 A 
HETATM   24  C   UNK     0     -40.079   4.020  20.206  0.00  0.00     0.000 A 
HETATM   25  C   UNK     0     -40.688   3.919  21.458  0.00  0.00     0.001 A 
HETATM   26  C   UNK     0     -41.922   3.281  21.584  0.00  0.00     0.014 A 
ENDBRANCH  13  21
BRANCH  17  27
HETATM   27  O   UNK     0     -48.393   0.040  21.596  0.00  0.00    -0.360 OA
HETATM   28  H   UNK     0     -48.568   0.970  21.802  0.00  0.00     0.217 HD
ENDBRANCH  17  27
ENDBRANCH   7   8
ENDBRANCH   5   7
BRANCH   6  29
HETATM   29  C   UNK     0     -51.139  -0.235  16.072  0.00  0.00     0.172 C 
HETATM   30  O   UNK     0     -51.456   0.710  16.781  0.00  0.00    -0.648 OA
BRANCH  29  31
HETATM   31  O   UNK     0     -51.992  -1.208  15.671  0.00  0.00    -0.774 OA
HETATM   32  H   UNK     0     -51.690  -1.644  14.846  0.00  0.00     0.167 HD
ENDBRANCH  29  31
ENDBRANCH   6  29
BRANCH   3  33
HETATM   33  O   UNK     0     -46.247  -2.523  14.848  0.00  0.00    -0.388 OA
HETATM   34  H   UNK     0     -45.749  -1.813  15.289  0.00  0.00     0.210 HD
ENDBRANCH   3  33
BRANCH   4  35
HETATM   35  O   UNK     0     -50.387  -0.741  13.232  0.00  0.00    -0.390 OA
HETATM   36  H   UNK     0     -49.671  -0.494  12.623  0.00  0.00     0.210 HD
ENDBRANCH   4  35
BRANCH   2  37
HETATM   37  O   UNK     0     -48.521  -2.961  13.030  0.00  0.00    -0.390 OA
HETATM   38  H   UNK     0     -48.376  -3.792  13.513  0.00  0.00     0.210 HD
ENDBRANCH   2  37
TORSDOF 10
ENDMDL
MODEL 5
REMARK VINA RESULT:      -6.8      2.722      5.255
REMARK  10 active torsions:
REMARK  status: ('A' for Active; 'I' for Inactive)
REMARK    1  A    between atoms: O_2  and  C_15 
REMARK    2  A    between atoms: O_2  and  C_18 
REMARK    3  A    between atoms: O_3  and  C_12 
REMARK    4  A    between atoms: O_4  and  C_13 
REMARK    5  A    between atoms: O_5  and  C_14 
REMARK    6  A    between atoms: O_6  and  C_17 
REMARK    7  A    between atoms: O_9  and  C_19 
REMARK    8  A    between atoms: O_10  and  C_23 
REMARK    9  A    between atoms: C_16  and  C_17 
REMARK   10  A    between atoms: C_25  and  C_27 
ROOT
HETATM    1  O   UNK     0     -47.912  -2.398  16.701  0.00  0.00    -0.340 OA
HETATM    2  C   UNK     0     -49.354  -2.336  14.217  0.00  0.00     0.183 C 
HETATM    3  C   UNK     0     -48.105  -1.489  14.459  0.00  0.00     0.205 C 
HETATM    4  C   UNK     0     -49.405  -3.539  15.160  0.00  0.00     0.189 C 
HETATM    5  C   UNK     0     -47.920  -1.188  15.947  0.00  0.00     0.299 C 
HETATM    6  C   UNK     0     -49.139  -3.110  16.597  0.00  0.00     0.253 C 
ENDROOT
BRANCH   5   7
HETATM    7  O   UNK     0     -46.675  -0.511  16.108  0.00  0.00    -0.315 OA
BRANCH   7   8
HETATM    8  C   UNK     0     -46.466   0.107  17.306  0.00  0.00     0.111 A 
HETATM    9  C   UNK     0     -45.188   0.153  17.866  0.00  0.00     0.137 A 
HETATM   10  C   UNK     0     -44.990   0.789  19.093  0.00  0.00     0.129 A 
HETATM   11  O   UNK     0     -43.714   0.803  19.592  0.00  0.00    -0.306 OA
HETATM   12  C   UNK     0     -46.068   1.376  19.754  0.00  0.00     0.084 A 
HETATM   13  C   UNK     0     -43.486   1.433  20.805  0.00  0.00     0.090 A 
HETATM   14  C   UNK     0     -44.440   2.027  21.540  0.00  0.00     0.094 A 
HETATM   15  C   UNK     0     -45.832   2.038  21.046  0.00  0.00     0.190 A 
HETATM   16  O   UNK     0     -46.731   2.571  21.682  0.00  0.00    -0.287 OA
HETATM   17  C   UNK     0     -47.348   1.331  19.197  0.00  0.00     0.085 A 
HETATM   18  C   UNK     0     -47.543   0.695  17.971  0.00  0.00     0.077 A 
BRANCH   9  19
HETATM   19  O   UNK     0     -44.138  -0.423  17.212  0.00  0.00    -0.351 OA
HETATM   20  C   UNK     0     -43.853  -1.785  17.520  0.00  0.00     0.210 C 
ENDBRANCH   9  19
BRANCH  13  21
HETATM   21  C   UNK     0     -42.079   1.383  21.253  0.00  0.00    -0.002 A 
HETATM   22  C   UNK     0     -41.049   1.723  20.373  0.00  0.00     0.014 A 
HETATM   23  C   UNK     0     -39.721   1.677  20.797  0.00  0.00     0.001 A 
HETATM   24  C   UNK     0     -39.418   1.289  22.101  0.00  0.00     0.000 A 
HETATM   25  C   UNK     0     -40.444   0.948  22.984  0.00  0.00     0.001 A 
HETATM   26  C   UNK     0     -41.772   0.995  22.560  0.00  0.00     0.014 A 
ENDBRANCH  13  21
BRANCH  17  27
HETATM   27  O   UNK     0     -48.433   1.888  19.805  0.00  0.00    -0.360 OA
HETATM   28  H   UNK     0     -48.196   2.222  20.683  0.00  0.00     0.217 HD
ENDBRANCH  17  27
ENDBRANCH   7   8
ENDBRANCH   5   7
BRANCH   6  29
HETATM   29  C   UNK     0     -48.925  -4.296  17.479  0.00  0.00     0.172 C 
HETATM   30  O   UNK     0     -49.002  -4.286  18.700  0.00  0.00    -0.648 OA
BRANCH  29  31
HETATM   31  O   UNK     0     -48.626  -5.394  16.743  0.00  0.00    -0.774 OA
HETATM   32  H   UNK     0     -49.247  -5.512  15.992  0.00  0.00     0.167 HD
ENDBRANCH  29  31
ENDBRANCH   6  29
BRANCH   3  33
HETATM   33  O   UNK     0     -48.231  -0.249  13.764  0.00  0.00    -0.388 OA
HETATM   34  H   UNK     0     -47.966  -0.400  12.841  0.00  0.00     0.210 HD
ENDBRANCH   3  33
BRANCH   4  35
HETATM   35  O   UNK     0     -50.700  -4.132  15.091  0.00  0.00    -0.390 OA
HETATM   36  H   UNK     0     -50.617  -5.068  15.341  0.00  0.00     0.210 HD
ENDBRANCH   4  35
BRANCH   2  37
HETATM   37  O   UNK     0     -49.344  -2.826  12.875  0.00  0.00    -0.390 OA
HETATM   38  H   UNK     0     -48.417  -2.959  12.616  0.00  0.00     0.210 HD
ENDBRANCH   2  37
TORSDOF 10
ENDMDL
MODEL 6
REMARK VINA RESULT:      -6.6      1.853      2.516
REMARK  10 active torsions:
REMARK  status: ('A' for Active; 'I' for Inactive)
REMARK    1  A    between atoms: O_2  and  C_15 
REMARK    2  A    between atoms: O_2  and  C_18 
REMARK    3  A    between atoms: O_3  and  C_12 
REMARK    4  A    between atoms: O_4  and  C_13 
REMARK    5  A    between atoms: O_5  and  C_14 
REMARK    6  A    between atoms: O_6  and  C_17 
REMARK    7  A    between atoms: O_9  and  C_19 
REMARK    8  A    between atoms: O_10  and  C_23 
REMARK    9  A    between atoms: C_16  and  C_17 
REMARK   10  A    between atoms: C_25  and  C_27 
ROOT
HETATM    1  O   UNK     0     -51.666   1.349  15.475  0.00  0.00    -0.340 OA
HETATM    2  C   UNK     0     -53.821  -0.409  14.752  0.00  0.00     0.183 C 
HETATM    3  C   UNK     0     -52.817  -0.754  15.853  0.00  0.00     0.205 C 
HETATM    4  C   UNK     0     -53.879   1.098  14.502  0.00  0.00     0.189 C 
HETATM    5  C   UNK     0     -51.476  -0.057  15.617  0.00  0.00     0.299 C 
HETATM    6  C   UNK     0     -52.477   1.675  14.352  0.00  0.00     0.253 C 
ENDROOT
BRANCH   5   7
HETATM    7  O   UNK     0     -50.640  -0.319  16.743  0.00  0.00    -0.315 OA
BRANCH   7   8
HETATM    8  C   UNK     0     -49.334  -0.612  16.479  0.00  0.00     0.111 A 
HETATM    9  C   UNK     0     -48.318  -0.119  17.298  0.00  0.00     0.137 A 
HETATM   10  C   UNK     0     -46.986  -0.429  17.015  0.00  0.00     0.129 A 
HETATM   11  O   UNK     0     -46.032   0.084  17.855  0.00  0.00    -0.306 OA
HETATM   12  C   UNK     0     -46.677  -1.229  15.916  0.00  0.00     0.084 A 
HETATM   13  C   UNK     0     -44.701  -0.213  17.602  0.00  0.00     0.090 A 
HETATM   14  C   UNK     0     -44.276  -0.965  16.574  0.00  0.00     0.094 A 
HETATM   15  C   UNK     0     -45.265  -1.539  15.640  0.00  0.00     0.190 A 
HETATM   16  O   UNK     0     -44.921  -2.233  14.693  0.00  0.00    -0.287 OA
HETATM   17  C   UNK     0     -47.691  -1.724  15.094  0.00  0.00     0.085 A 
HETATM   18  C   UNK     0     -49.021  -1.413  15.380  0.00  0.00     0.077 A 
BRANCH   9  19
HETATM   19  O   UNK     0     -48.629   0.663  18.372  0.00  0.00    -0.351 OA
HETATM   20  C   UNK     0     -48.885  -0.004  19.605  0.00  0.00     0.210 C 
ENDBRANCH   9  19
BRANCH  13  21
HETATM   21  C   UNK     0     -43.758   0.395  18.562  0.00  0.00    -0.002 A 
HETATM   22  C   UNK     0     -43.476   1.762  18.500  0.00  0.00     0.014 A 
HETATM   23  C   UNK     0     -42.586   2.337  19.407  0.00  0.00     0.001 A 
HETATM   24  C   UNK     0     -41.974   1.547  20.379  0.00  0.00     0.000 A 
HETATM   25  C   UNK     0     -42.252   0.181  20.445  0.00  0.00     0.001 A 
HETATM   26  C   UNK     0     -43.143  -0.394  19.537  0.00  0.00     0.014 A 
ENDBRANCH  13  21
BRANCH  17  27
HETATM   27  O   UNK     0     -47.439  -2.509  14.009  0.00  0.00    -0.360 OA
HETATM   28  H   UNK     0     -48.026  -2.272  13.275  0.00  0.00     0.217 HD
ENDBRANCH  17  27
ENDBRANCH   7   8
ENDBRANCH   5   7
BRANCH   6  29
HETATM   29  C   UNK     0     -52.508   3.169  14.372  0.00  0.00     0.172 C 
HETATM   30  O   UNK     0     -52.927   3.874  13.465  0.00  0.00    -0.648 OA
BRANCH  29  31
HETATM   31  O   UNK     0     -52.003   3.644  15.536  0.00  0.00    -0.774 OA
HETATM   32  H   UNK     0     -52.517   4.407  15.876  0.00  0.00     0.167 HD
ENDBRANCH  29  31
ENDBRANCH   6  29
BRANCH   3  33
HETATM   33  O   UNK     0     -52.592  -2.162  15.865  0.00  0.00    -0.388 OA
HETATM   34  H   UNK     0     -51.705  -2.323  15.501  0.00  0.00     0.210 HD
ENDBRANCH   3  33
BRANCH   4  35
HETATM   35  O   UNK     0     -54.606   1.344  13.299  0.00  0.00    -0.390 OA
HETATM   36  H   UNK     0     -54.399   0.632  12.670  0.00  0.00     0.210 HD
ENDBRANCH   4  35
BRANCH   2  37
HETATM   37  O   UNK     0     -55.124  -0.843  15.143  0.00  0.00    -0.390 OA
HETATM   38  H   UNK     0     -55.755  -0.522  14.478  0.00  0.00     0.210 HD
ENDBRANCH   2  37
TORSDOF 10
ENDMDL
MODEL 7
REMARK VINA RESULT:      -6.6      1.835      2.566
REMARK  10 active torsions:
REMARK  status: ('A' for Active; 'I' for Inactive)
REMARK    1  A    between atoms: O_2  and  C_15 
REMARK    2  A    between atoms: O_2  and  C_18 
REMARK    3  A    between atoms: O_3  and  C_12 
REMARK    4  A    between atoms: O_4  and  C_13 
REMARK    5  A    between atoms: O_5  and  C_14 
REMARK    6  A    between atoms: O_6  and  C_17 
REMARK    7  A    between atoms: O_9  and  C_19 
REMARK    8  A    between atoms: O_10  and  C_23 
REMARK    9  A    between atoms: C_16  and  C_17 
REMARK   10  A    between atoms: C_25  and  C_27 
ROOT
HETATM    1  O   UNK     0     -49.567   0.097  15.858  0.00  0.00    -0.340 OA
HETATM    2  C   UNK     0     -52.308  -0.603  16.361  0.00  0.00     0.183 C 
HETATM    3  C   UNK     0     -51.399  -0.026  17.446  0.00  0.00     0.205 C 
HETATM    4  C   UNK     0     -51.799  -0.255  14.962  0.00  0.00     0.189 C 
HETATM    5  C   UNK     0     -49.930  -0.346  17.164  0.00  0.00     0.299 C 
HETATM    6  C   UNK     0     -50.311  -0.559  14.838  0.00  0.00     0.253 C 
ENDROOT
BRANCH   5   7
HETATM    7  O   UNK     0     -49.137   0.330  18.139  0.00  0.00    -0.315 OA
BRANCH   7   8
HETATM    8  C   UNK     0     -47.816  -0.007  18.193  0.00  0.00     0.111 A 
HETATM    9  C   UNK     0     -46.871   0.907  18.662  0.00  0.00     0.137 A 
HETATM   10  C   UNK     0     -45.523   0.546  18.711  0.00  0.00     0.129 A 
HETATM   11  O   UNK     0     -44.641   1.485  19.181  0.00  0.00    -0.306 OA
HETATM   12  C   UNK     0     -45.126  -0.722  18.292  0.00  0.00     0.084 A 
HETATM   13  C   UNK     0     -43.297   1.153  19.248  0.00  0.00     0.090 A 
HETATM   14  C   UNK     0     -42.790  -0.031  18.868  0.00  0.00     0.094 A 
HETATM   15  C   UNK     0     -43.699  -1.075  18.353  0.00  0.00     0.190 A 
HETATM   16  O   UNK     0     -43.280  -2.169  18.001  0.00  0.00    -0.287 OA
HETATM   17  C   UNK     0     -46.069  -1.638  17.822  0.00  0.00     0.085 A 
HETATM   18  C   UNK     0     -47.415  -1.276  17.774  0.00  0.00     0.077 A 
BRANCH   9  19
HETATM   19  O   UNK     0     -47.267   2.146  19.071  0.00  0.00    -0.351 OA
HETATM   20  C   UNK     0     -47.627   2.291  20.443  0.00  0.00     0.210 C 
ENDBRANCH   9  19
BRANCH  13  21
HETATM   21  C   UNK     0     -42.436   2.238  19.761  0.00  0.00    -0.002 A 
HETATM   22  C   UNK     0     -42.508   2.616  21.105  0.00  0.00     0.014 A 
HETATM   23  C   UNK     0     -41.694   3.639  21.589  0.00  0.00     0.001 A 
HETATM   24  C   UNK     0     -40.805   4.289  20.733  0.00  0.00     0.000 A 
HETATM   25  C   UNK     0     -40.729   3.914  19.391  0.00  0.00     0.001 A 
HETATM   26  C   UNK     0     -41.544   2.890  18.906  0.00  0.00     0.014 A 
ENDBRANCH  13  21
BRANCH  17  27
HETATM   27  O   UNK     0     -45.731  -2.889  17.401  0.00  0.00    -0.360 OA
HETATM   28  H   UNK     0     -46.114  -3.069  16.530  0.00  0.00     0.217 HD
ENDBRANCH  17  27
ENDBRANCH   7   8
ENDBRANCH   5   7
BRANCH   6  29
HETATM   29  C   UNK     0     -49.750   0.017  13.579  0.00  0.00     0.172 C 
HETATM   30  O   UNK     0     -50.267   0.912  12.925  0.00  0.00    -0.648 OA
BRANCH  29  31
HETATM   31  O   UNK     0     -48.585  -0.592  13.250  0.00  0.00    -0.774 OA
HETATM   32  H   UNK     0     -48.675  -1.147  12.446  0.00  0.00     0.167 HD
ENDBRANCH  29  31
ENDBRANCH   6  29
BRANCH   3  33
HETATM   33  O   UNK     0     -51.746  -0.594  18.707  0.00  0.00    -0.388 OA
HETATM   34  H   UNK     0     -51.705  -1.561  18.616  0.00  0.00     0.210 HD
ENDBRANCH   3  33
BRANCH   4  35
HETATM   35  O   UNK     0     -52.507  -1.035  14.000  0.00  0.00    -0.390 OA
HETATM   36  H   UNK     0     -51.859  -1.412  13.382  0.00  0.00     0.210 HD
ENDBRANCH   4  35
BRANCH   2  37
HETATM   37  O   UNK     0     -53.621  -0.058  16.501  0.00  0.00    -0.390 OA
HETATM   38  H   UNK     0     -53.843   0.398  15.672  0.00  0.00     0.210 HD
ENDBRANCH   2  37
TORSDOF 10
ENDMDL
MODEL 8
REMARK VINA RESULT:      -6.4      7.845     13.819
REMARK  10 active torsions:
REMARK  status: ('A' for Active; 'I' for Inactive)
REMARK    1  A    between atoms: O_2  and  C_15 
REMARK    2  A    between atoms: O_2  and  C_18 
REMARK    3  A    between atoms: O_3  and  C_12 
REMARK    4  A    between atoms: O_4  and  C_13 
REMARK    5  A    between atoms: O_5  and  C_14 
REMARK    6  A    between atoms: O_6  and  C_17 
REMARK    7  A    between atoms: O_9  and  C_19 
REMARK    8  A    between atoms: O_10  and  C_23 
REMARK    9  A    between atoms: C_16  and  C_17 
REMARK   10  A    between atoms: C_25  and  C_27 
ROOT
HETATM    1  O   UNK     0     -52.868   2.826  11.309  0.00  0.00    -0.340 OA
HETATM    2  C   UNK     0     -54.062   3.830  13.722  0.00  0.00     0.183 C 
HETATM    3  C   UNK     0     -54.749   2.784  12.842  0.00  0.00     0.205 C 
HETATM    4  C   UNK     0     -52.551   3.848  13.492  0.00  0.00     0.189 C 
HETATM    5  C   UNK     0     -54.289   2.898  11.388  0.00  0.00     0.299 C 
HETATM    6  C   UNK     0     -52.232   3.894  12.003  0.00  0.00     0.253 C 
ENDROOT
BRANCH   5   7
HETATM    7  O   UNK     0     -54.867   1.817  10.658  0.00  0.00    -0.315 OA
BRANCH   7   8
HETATM    8  C   UNK     0     -55.470   2.131   9.475  0.00  0.00     0.111 A 
HETATM    9  C   UNK     0     -55.911   1.124   8.615  0.00  0.00     0.137 A 
HETATM   10  C   UNK     0     -56.526   1.463   7.409  0.00  0.00     0.129 A 
HETATM   11  O   UNK     0     -56.938   0.431   6.605  0.00  0.00    -0.306 OA
HETATM   12  C   UNK     0     -56.698   2.803   7.067  0.00  0.00     0.084 A 
HETATM   13  C   UNK     0     -57.558   0.736   5.404  0.00  0.00     0.090 A 
HETATM   14  C   UNK     0     -57.775   1.985   4.960  0.00  0.00     0.094 A 
HETATM   15  C   UNK     0     -57.348   3.131   5.788  0.00  0.00     0.190 A 
HETATM   16  O   UNK     0     -57.530   4.285   5.424  0.00  0.00    -0.287 OA
HETATM   17  C   UNK     0     -56.258   3.813   7.925  0.00  0.00     0.085 A 
HETATM   18  C   UNK     0     -55.643   3.472   9.130  0.00  0.00     0.077 A 
BRANCH   9  19
HETATM   19  O   UNK     0     -55.739  -0.185   8.957  0.00  0.00    -0.351 OA
HETATM   20  C   UNK     0     -56.772  -0.793   9.729  0.00  0.00     0.210 C 
ENDBRANCH   9  19
BRANCH  13  21
HETATM   21  C   UNK     0     -57.955  -0.447   4.615  0.00  0.00    -0.002 A 
HETATM   22  C   UNK     0     -57.943  -0.397   3.218  0.00  0.00     0.014 A 
HETATM   23  C   UNK     0     -58.316  -1.515   2.473  0.00  0.00     0.001 A 
HETATM   24  C   UNK     0     -58.703  -2.688   3.121  0.00  0.00     0.000 A 
HETATM   25  C   UNK     0     -58.716  -2.743   4.515  0.00  0.00     0.001 A 
HETATM   26  C   UNK     0     -58.342  -1.624   5.261  0.00  0.00     0.014 A 
ENDBRANCH  13  21
BRANCH  17  27
HETATM   27  O   UNK     0     -56.402   5.137   7.635  0.00  0.00    -0.360 OA
HETATM   28  H   UNK     0     -55.548   5.590   7.684  0.00  0.00     0.217 HD
ENDBRANCH  17  27
ENDBRANCH   7   8
ENDBRANCH   5   7
BRANCH   6  29
HETATM   29  C   UNK     0     -50.779   3.646  11.758  0.00  0.00     0.172 C 
HETATM   30  O   UNK     0     -49.937   4.518  11.594  0.00  0.00    -0.648 OA
BRANCH  29  31
HETATM   31  O   UNK     0     -50.515   2.318  11.738  0.00  0.00    -0.774 OA
HETATM   32  H   UNK     0     -50.986   1.839  12.453  0.00  0.00     0.167 HD
ENDBRANCH  29  31
ENDBRANCH   6  29
BRANCH   3  33
HETATM   33  O   UNK     0     -56.160   2.985  12.882  0.00  0.00    -0.388 OA
HETATM   34  H   UNK     0     -56.327   3.934  12.756  0.00  0.00     0.210 HD
ENDBRANCH   3  33
BRANCH   4  35
HETATM   35  O   UNK     0     -51.998   5.006  14.114  0.00  0.00    -0.390 OA
HETATM   36  H   UNK     0     -51.070   5.085  13.835  0.00  0.00     0.210 HD
ENDBRANCH   4  35
BRANCH   2  37
HETATM   37  O   UNK     0     -54.296   3.522  15.097  0.00  0.00    -0.390 OA
HETATM   38  H   UNK     0     -54.986   2.838  15.134  0.00  0.00     0.210 HD
ENDBRANCH   2  37
TORSDOF 10
ENDMDL
MODEL 9
REMARK VINA RESULT:      -6.3      2.785      4.613
REMARK  10 active torsions:
REMARK  status: ('A' for Active; 'I' for Inactive)
REMARK    1  A    between atoms: O_2  and  C_15 
REMARK    2  A    between atoms: O_2  and  C_18 
REMARK    3  A    between atoms: O_3  and  C_12 
REMARK    4  A    between atoms: O_4  and  C_13 
REMARK    5  A    between atoms: O_5  and  C_14 
REMARK    6  A    between atoms: O_6  and  C_17 
REMARK    7  A    between atoms: O_9  and  C_19 
REMARK    8  A    between atoms: O_10  and  C_23 
REMARK    9  A    between atoms: C_16  and  C_17 
REMARK   10  A    between atoms: C_25  and  C_27 
ROOT
HETATM    1  O   UNK     0     -48.235  -2.089  16.535  0.00  0.00    -0.340 OA
HETATM    2  C   UNK     0     -49.399  -2.682  13.976  0.00  0.00     0.183 C 
HETATM    3  C   UNK     0     -48.306  -1.627  14.154  0.00  0.00     0.205 C 
HETATM    4  C   UNK     0     -49.390  -3.694  15.122  0.00  0.00     0.189 C 
HETATM    5  C   UNK     0     -48.324  -1.045  15.568  0.00  0.00     0.299 C 
HETATM    6  C   UNK     0     -49.339  -2.984  16.469  0.00  0.00     0.253 C 
ENDROOT
BRANCH   5   7
HETATM    7  O   UNK     0     -47.204  -0.171  15.699  0.00  0.00    -0.315 OA
BRANCH   7   8
HETATM    8  C   UNK     0     -46.336  -0.437  16.718  0.00  0.00     0.111 A 
HETATM    9  C   UNK     0     -46.465   0.213  17.945  0.00  0.00     0.137 A 
HETATM   10  C   UNK     0     -45.569  -0.071  18.978  0.00  0.00     0.129 A 
HETATM   11  O   UNK     0     -45.746   0.599  20.161  0.00  0.00    -0.306 OA
HETATM   12  C   UNK     0     -44.551  -1.001  18.780  0.00  0.00     0.084 A 
HETATM   13  C   UNK     0     -44.876   0.333  21.207  0.00  0.00     0.090 A 
HETATM   14  C   UNK     0     -43.853  -0.534  21.138  0.00  0.00     0.094 A 
HETATM   15  C   UNK     0     -43.620  -1.280  19.884  0.00  0.00     0.190 A 
HETATM   16  O   UNK     0     -42.703  -2.083  19.780  0.00  0.00    -0.287 OA
HETATM   17  C   UNK     0     -44.419  -1.654  17.552  0.00  0.00     0.085 A 
HETATM   18  C   UNK     0     -45.315  -1.368  16.522  0.00  0.00     0.077 A 
BRANCH   9  19
HETATM   19  O   UNK     0     -47.465   1.122  18.132  0.00  0.00    -0.351 OA
HETATM   20  C   UNK     0     -48.662   0.650  18.746  0.00  0.00     0.210 C 
ENDBRANCH   9  19
BRANCH  13  21
HETATM   21  C   UNK     0     -45.151   1.113  22.430  0.00  0.00    -0.002 A 
HETATM   22  C   UNK     0     -45.708   2.391  22.338  0.00  0.00     0.014 A 
HETATM   23  C   UNK     0     -45.969   3.127  23.493  0.00  0.00     0.001 A 
HETATM   24  C   UNK     0     -45.674   2.589  24.745  0.00  0.00     0.000 A 
HETATM   25  C   UNK     0     -45.116   1.313  24.842  0.00  0.00     0.001 A 
HETATM   26  C   UNK     0     -44.856   0.576  23.686  0.00  0.00     0.014 A 
ENDBRANCH  13  21
BRANCH  17  27
HETATM   27  O   UNK     0     -43.440  -2.570  17.309  0.00  0.00    -0.360 OA
HETATM   28  H   UNK     0     -43.826  -3.419  17.050  0.00  0.00     0.217 HD
ENDBRANCH  17  27
ENDBRANCH   7   8
ENDBRANCH   5   7
BRANCH   6  29
HETATM   29  C   UNK     0     -49.065  -3.952  17.574  0.00  0.00     0.172 C 
HETATM   30  O   UNK     0     -49.257  -3.733  18.762  0.00  0.00    -0.648 OA
BRANCH  29  31
HETATM   31  O   UNK     0     -48.567  -5.112  17.084  0.00  0.00    -0.774 OA
HETATM   32  H   UNK     0     -47.606  -5.201  17.256  0.00  0.00     0.167 HD
ENDBRANCH  29  31
ENDBRANCH   6  29
BRANCH   3  33
HETATM   33  O   UNK     0     -48.520  -0.562  13.230  0.00  0.00    -0.388 OA
HETATM   34  H   UNK     0     -47.685  -0.410  12.756  0.00  0.00     0.210 HD
ENDBRANCH   3  33
BRANCH   4  35
HETATM   35  O   UNK     0     -50.581  -4.477  15.062  0.00  0.00    -0.390 OA
HETATM   36  H   UNK     0     -50.371  -5.311  14.608  0.00  0.00     0.210 HD
ENDBRANCH   4  35
BRANCH   2  37
HETATM   37  O   UNK     0     -49.181  -3.393  12.756  0.00  0.00    -0.390 OA
HETATM   38  H   UNK     0     -49.591  -4.269  12.848  0.00  0.00     0.210 HD
ENDBRANCH   2  37
TORSDOF 10
ENDMDL
MODEL 10
REMARK VINA RESULT:      -6.2      2.353      5.723
REMARK  10 active torsions:
REMARK  status: ('A' for Active; 'I' for Inactive)
REMARK    1  A    between atoms: O_2  and  C_15 
REMARK    2  A    between atoms: O_2  and  C_18 
REMARK    3  A    between atoms: O_3  and  C_12 
REMARK    4  A    between atoms: O_4  and  C_13 
REMARK    5  A    between atoms: O_5  and  C_14 
REMARK    6  A    between atoms: O_6  and  C_17 
REMARK    7  A    between atoms: O_9  and  C_19 
REMARK    8  A    between atoms: O_10  and  C_23 
REMARK    9  A    between atoms: C_16  and  C_17 
REMARK   10  A    between atoms: C_25  and  C_27 
ROOT
HETATM    1  O   UNK     0     -48.055  -1.238  17.256  0.00  0.00    -0.340 OA
HETATM    2  C   UNK     0     -46.341  -1.986  15.075  0.00  0.00     0.183 C 
HETATM    3  C   UNK     0     -45.943  -2.192  16.537  0.00  0.00     0.205 C 
HETATM    4  C   UNK     0     -47.858  -1.877  14.920  0.00  0.00     0.189 C 
HETATM    5  C   UNK     0     -46.643  -1.184  17.449  0.00  0.00     0.299 C 
HETATM    6  C   UNK     0     -48.435  -0.892  15.930  0.00  0.00     0.253 C 
ENDROOT
BRANCH   5   7
HETATM    7  O   UNK     0     -46.328  -1.518  18.799  0.00  0.00    -0.315 OA
BRANCH   7   8
HETATM    8  C   UNK     0     -46.142  -0.475  19.659  0.00  0.00     0.111 A 
HETATM    9  C   UNK     0     -44.871   0.068  19.850  0.00  0.00     0.137 A 
HETATM   10  C   UNK     0     -44.698   1.135  20.734  0.00  0.00     0.129 A 
HETATM   11  O   UNK     0     -43.427   1.627  20.880  0.00  0.00    -0.306 OA
HETATM   12  C   UNK     0     -45.794   1.654  21.421  0.00  0.00     0.084 A 
HETATM   13  C   UNK     0     -43.225   2.691  21.745  0.00  0.00     0.090 A 
HETATM   14  C   UNK     0     -44.196   3.272  22.469  0.00  0.00     0.094 A 
HETATM   15  C   UNK     0     -45.583   2.777  22.347  0.00  0.00     0.190 A 
HETATM   16  O   UNK     0     -46.498   3.280  22.985  0.00  0.00    -0.287 OA
HETATM   17  C   UNK     0     -47.067   1.112  21.233  0.00  0.00     0.085 A 
HETATM   18  C   UNK     0     -47.237   0.046  20.350  0.00  0.00     0.077 A 
BRANCH   9  19
HETATM   19  O   UNK     0     -43.803  -0.444  19.173  0.00  0.00    -0.351 OA
HETATM   20  C   UNK     0     -43.175  -1.596  19.732  0.00  0.00     0.210 C 
ENDBRANCH   9  19
BRANCH  13  21
HETATM   21  C   UNK     0     -41.820   3.136  21.833  0.00  0.00    -0.002 A 
HETATM   22  C   UNK     0     -40.972   2.598  22.804  0.00  0.00     0.014 A 
HETATM   23  C   UNK     0     -39.644   3.017  22.886  0.00  0.00     0.001 A 
HETATM   24  C   UNK     0     -39.160   3.978  21.998  0.00  0.00     0.000 A 
HETATM   25  C   UNK     0     -40.004   4.518  21.027  0.00  0.00     0.001 A 
HETATM   26  C   UNK     0     -41.332   4.098  20.945  0.00  0.00     0.014 A 
ENDBRANCH  13  21
BRANCH  17  27
HETATM   27  O   UNK     0     -48.169   1.584  21.882  0.00  0.00    -0.360 OA
HETATM   28  H   UNK     0     -47.926   1.935  22.752  0.00  0.00     0.217 HD
ENDBRANCH  17  27
ENDBRANCH   7   8
ENDBRANCH   5   7
BRANCH   6  29
HETATM   29  C   UNK     0     -49.927  -0.974  15.966  0.00  0.00     0.172 C 
HETATM   30  O   UNK     0     -50.578  -1.520  16.845  0.00  0.00    -0.648 OA
BRANCH  29  31
HETATM   31  O   UNK     0     -50.467  -0.362  14.885  0.00  0.00    -0.774 OA
HETATM   32  H   UNK     0     -51.446  -0.330  14.933  0.00  0.00     0.167 HD
ENDBRANCH  29  31
ENDBRANCH   6  29
BRANCH   3  33
HETATM   33  O   UNK     0     -44.534  -2.015  16.673  0.00  0.00    -0.388 OA
HETATM   34  H   UNK     0     -44.387  -1.328  17.345  0.00  0.00     0.210 HD
ENDBRANCH   3  33
BRANCH   4  35
HETATM   35  O   UNK     0     -48.161  -1.413  13.605  0.00  0.00    -0.390 OA
HETATM   36  H   UNK     0     -48.240  -2.188  13.023  0.00  0.00     0.210 HD
ENDBRANCH   4  35
BRANCH   2  37
HETATM   37  O   UNK     0     -45.897  -3.100  14.299  0.00  0.00    -0.390 OA
HETATM   38  H   UNK     0     -45.508  -2.752  13.479  0.00  0.00     0.210 HD
ENDBRANCH   2  37
TORSDOF 10
ENDMDL
