MODEL 1
REMARK VINA RESULT:      -5.6      0.000      0.000
REMARK  16 active torsions:
REMARK  status: ('A' for Active; 'I' for Inactive)
REMARK    1  A    between atoms: N_3  and  C_13 
REMARK    2  A    between atoms: C_6  and  C_37 
REMARK    3  A    between atoms: C_13  and  C_14 
REMARK    4  A    between atoms: C_13  and  C_17 
REMARK       I    between atoms: C_14  and  N_15 
REMARK    5  A    between atoms: N_15  and  C_16 
REMARK    6  A    between atoms: C_16  and  C_27 
REMARK    7  A    between atoms: C_16  and  C_28 
REMARK    8  A    between atoms: C_25  and  C_27 
REMARK    9  A    between atoms: C_28  and  C_29 
REMARK   10  A    between atoms: C_29  and  C_30 
REMARK   11  A    between atoms: C_29  and  O_36 
REMARK   12  A    between atoms: C_30  and  N_31 
REMARK   13  A    between atoms: C_30  and  C_37 
REMARK       I    between atoms: N_31  and  C_32 
REMARK   14  A    between atoms: C_32  and  C_33 
REMARK   15  A    between atoms: C_33  and  O_34 
REMARK   16  A    between atoms: O_34  and  C_35 
ROOT
HETATM    1  C   UNK     0     -48.121  -8.068  18.496  0.00  0.00     0.126 C 
HETATM    2  C   UNK     0     -50.414  -7.199  17.964  0.00  0.00     0.130 C 
HETATM    3  N   UNK     0     -49.785  -5.870  17.622  0.00  0.00    -0.320 N 
HETATM    4  C   UNK     0     -48.414  -5.674  17.719  0.00  0.00     0.319 C 
HETATM    5  N   UNK     0     -47.642  -6.720  18.131  0.00  0.00    -0.343 N 
HETATM    6  O   UNK     0     -47.891  -4.607  17.451  0.00  0.00    -0.247 OA
HETATM    7  C   UNK     0     -49.457  -8.401  17.821  0.00  0.00     0.040 C 
HETATM    8  H   UNK     0     -46.651  -6.481  18.168  0.00  0.00     0.164 HD
ENDROOT
BRANCH   3   9
HETATM    9  C   UNK     0     -50.652  -4.725  17.173  0.00  0.00     0.184 C 
BRANCH   9  10
HETATM   10  C   UNK     0     -50.272  -4.337  15.717  0.00  0.00     0.241 C 
HETATM   11  N   UNK     0     -49.727  -3.084  15.629  0.00  0.00    -0.354 N 
HETATM   12  H   UNK     0     -49.660  -2.607  16.528  0.00  0.00     0.162 HD
HETATM   13  O   UNK     0     -50.459  -5.105  14.772  0.00  0.00    -0.271 OA
BRANCH  11  14
HETATM   14  C   UNK     0     -49.270  -2.449  14.373  0.00  0.00     0.091 C 
BRANCH  14  15
HETATM   15  C   UNK     0     -50.458  -1.811  13.618  0.00  0.00     0.063 C 
BRANCH  15  16
HETATM   16  C   UNK     0     -51.577  -1.229  14.435  0.00  0.00    -0.056 A 
HETATM   17  C   UNK     0     -52.836  -1.886  14.497  0.00  0.00     0.007 A 
HETATM   18  C   UNK     0     -53.895  -1.348  15.262  0.00  0.00     0.001 A 
HETATM   19  C   UNK     0     -53.706  -0.143  15.977  0.00  0.00     0.000 A 
HETATM   20  C   UNK     0     -52.456   0.518  15.920  0.00  0.00     0.001 A 
HETATM   21  C   UNK     0     -51.397  -0.024  15.152  0.00  0.00     0.007 A 
ENDBRANCH  15  16
ENDBRANCH  14  15
BRANCH  14  22
HETATM   22  C   UNK     0     -48.267  -1.307  14.649  0.00  0.00     0.059 C 
BRANCH  22  23
HETATM   23  C   UNK     0     -47.034  -1.566  15.533  0.00  0.00     0.143 C 
BRANCH  23  24
HETATM   24  C   UNK     0     -47.134  -1.149  17.023  0.00  0.00     0.117 C 
BRANCH  24  25
HETATM   25  N   UNK     0     -45.850  -0.523  17.416  0.00  0.00    -0.352 N 
HETATM   26  C   UNK     0     -44.720  -1.227  17.743  0.00  0.00     0.242 C 
HETATM   27  O   UNK     0     -44.630  -2.460  17.747  0.00  0.00    -0.271 OA
HETATM   28  H   UNK     0     -45.733   0.490  17.465  0.00  0.00     0.163 HD
BRANCH  26  29
HETATM   29  C   UNK     0     -43.516  -0.353  18.144  0.00  0.00     0.278 C 
BRANCH  29  30
HETATM   30  O   UNK     0     -43.905   0.737  18.999  0.00  0.00    -0.341 OA
BRANCH  30  31
HETATM   31  C   UNK     0     -43.057   0.926  20.108  0.00  0.00     0.081 A 
HETATM   32  C   UNK     0     -43.179   0.127  21.298  0.00  0.00    -0.028 A 
HETATM   33  C   UNK     0     -42.292   0.364  22.383  0.00  0.00     0.009 A 
HETATM   34  C   UNK     0     -44.217  -0.960  21.440  0.00  0.00     0.051 C 
HETATM   35  C   UNK     0     -41.301   1.364  22.304  0.00  0.00     0.001 A 
HETATM   36  C   UNK     0     -41.172   2.150  21.141  0.00  0.00     0.009 A 
HETATM   37  C   UNK     0     -42.038   1.942  20.040  0.00  0.00    -0.028 A 
HETATM   38  C   UNK     0     -41.873   2.789  18.825  0.00  0.00     0.051 C 
ENDBRANCH  30  31
ENDBRANCH  29  30
ENDBRANCH  26  29
ENDBRANCH  24  25
BRANCH  24  39
HETATM   39  C   UNK     0     -48.281  -0.116  17.231  0.00  0.00     0.066 C 
BRANCH  39  40
HETATM   40  C   UNK     0     -48.918  -0.145  18.607  0.00  0.00    -0.056 A 
HETATM   41  C   UNK     0     -48.307  -0.881  19.652  0.00  0.00     0.007 A 
HETATM   42  C   UNK     0     -48.886  -0.927  20.944  0.00  0.00     0.001 A 
HETATM   43  C   UNK     0     -50.084  -0.235  21.205  0.00  0.00     0.000 A 
HETATM   44  C   UNK     0     -50.702   0.502  20.170  0.00  0.00     0.001 A 
HETATM   45  C   UNK     0     -50.124   0.548  18.880  0.00  0.00     0.007 A 
ENDBRANCH  39  40
ENDBRANCH  24  39
ENDBRANCH  23  24
BRANCH  23  46
HETATM   46  O   UNK     0     -46.826  -2.958  15.504  0.00  0.00    -0.393 OA
HETATM   47  H   UNK     0     -46.073  -3.119  16.061  0.00  0.00     0.210 HD
ENDBRANCH  23  46
ENDBRANCH  22  23
ENDBRANCH  14  22
ENDBRANCH  11  14
ENDBRANCH   9  10
BRANCH   9  48
HETATM   48  C   UNK     0     -50.565  -3.496  18.161  0.00  0.00     0.010 C 
HETATM   49  C   UNK     0     -51.769  -2.540  18.060  0.00  0.00     0.012 C 
HETATM   50  C   UNK     0     -50.443  -3.976  19.626  0.00  0.00     0.012 C 
ENDBRANCH   9  48
ENDBRANCH   3   9
TORSDOF 16
ENDMDL
MODEL 2
REMARK VINA RESULT:      -5.5      3.178      8.680
REMARK  16 active torsions:
REMARK  status: ('A' for Active; 'I' for Inactive)
REMARK    1  A    between atoms: N_3  and  C_13 
REMARK    2  A    between atoms: C_6  and  C_37 
REMARK    3  A    between atoms: C_13  and  C_14 
REMARK    4  A    between atoms: C_13  and  C_17 
REMARK       I    between atoms: C_14  and  N_15 
REMARK    5  A    between atoms: N_15  and  C_16 
REMARK    6  A    between atoms: C_16  and  C_27 
REMARK    7  A    between atoms: C_16  and  C_28 
REMARK    8  A    between atoms: C_25  and  C_27 
REMARK    9  A    between atoms: C_28  and  C_29 
REMARK   10  A    between atoms: C_29  and  C_30 
REMARK   11  A    between atoms: C_29  and  O_36 
REMARK   12  A    between atoms: C_30  and  N_31 
REMARK   13  A    between atoms: C_30  and  C_37 
REMARK       I    between atoms: N_31  and  C_32 
REMARK   14  A    between atoms: C_32  and  C_33 
REMARK   15  A    between atoms: C_33  and  O_34 
REMARK   16  A    between atoms: O_34  and  C_35 
ROOT
HETATM    1  C   UNK     0     -48.371   4.077  21.245  0.00  0.00     0.126 C 
HETATM    2  C   UNK     0     -49.567   2.369  19.849  0.00  0.00     0.130 C 
HETATM    3  N   UNK     0     -48.393   1.442  20.052  0.00  0.00    -0.320 N 
HETATM    4  C   UNK     0     -47.291   1.827  20.803  0.00  0.00     0.319 C 
HETATM    5  N   UNK     0     -47.296   3.072  21.361  0.00  0.00    -0.343 N 
HETATM    6  O   UNK     0     -46.334   1.092  20.973  0.00  0.00    -0.247 OA
HETATM    7  C   UNK     0     -49.730   3.427  20.961  0.00  0.00     0.040 C 
HETATM    8  H   UNK     0     -46.447   3.261  21.895  0.00  0.00     0.164 HD
ENDROOT
BRANCH   3   9
HETATM    9  C   UNK     0     -48.403   0.073  19.427  0.00  0.00     0.184 C 
BRANCH   9  10
HETATM   10  C   UNK     0     -48.067   0.199  17.916  0.00  0.00     0.241 C 
HETATM   11  N   UNK     0     -46.991  -0.563  17.548  0.00  0.00    -0.354 N 
HETATM   12  H   UNK     0     -46.583  -1.088  18.322  0.00  0.00     0.162 HD
HETATM   13  O   UNK     0     -48.724   0.921  17.163  0.00  0.00    -0.271 OA
BRANCH  11  14
HETATM   14  C   UNK     0     -46.444  -0.645  16.176  0.00  0.00     0.091 C 
BRANCH  14  15
HETATM   15  C   UNK     0     -44.920  -0.903  16.208  0.00  0.00     0.063 C 
BRANCH  15  16
HETATM   16  C   UNK     0     -44.201  -0.697  17.511  0.00  0.00    -0.056 A 
HETATM   17  C   UNK     0     -44.032   0.613  18.036  0.00  0.00     0.007 A 
HETATM   18  C   UNK     0     -43.357   0.819  19.261  0.00  0.00     0.001 A 
HETATM   19  C   UNK     0     -42.845  -0.288  19.977  0.00  0.00     0.000 A 
HETATM   20  C   UNK     0     -43.010  -1.596  19.462  0.00  0.00     0.001 A 
HETATM   21  C   UNK     0     -43.685  -1.797  18.234  0.00  0.00     0.007 A 
ENDBRANCH  15  16
ENDBRANCH  14  15
BRANCH  14  22
HETATM   22  C   UNK     0     -47.066  -1.818  15.387  0.00  0.00     0.059 C 
BRANCH  22  23
HETATM   23  C   UNK     0     -48.214  -1.553  14.396  0.00  0.00     0.143 C 
BRANCH  23  24
HETATM   24  C   UNK     0     -49.655  -1.559  14.967  0.00  0.00     0.117 C 
BRANCH  24  25
HETATM   25  N   UNK     0     -50.245  -0.217  14.751  0.00  0.00    -0.352 N 
HETATM   26  C   UNK     0     -51.346   0.254  15.417  0.00  0.00     0.242 C 
HETATM   27  O   UNK     0     -51.976  -0.372  16.277  0.00  0.00    -0.271 OA
HETATM   28  H   UNK     0     -49.855   0.444  14.080  0.00  0.00     0.163 HD
BRANCH  26  29
HETATM   29  C   UNK     0     -51.787   1.671  15.001  0.00  0.00     0.278 C 
BRANCH  29  30
HETATM   30  O   UNK     0     -52.114   1.741  13.601  0.00  0.00    -0.341 OA
BRANCH  30  31
HETATM   31  C   UNK     0     -51.873   3.001  13.019  0.00  0.00     0.081 A 
HETATM   32  C   UNK     0     -52.789   4.098  13.181  0.00  0.00    -0.028 A 
HETATM   33  C   UNK     0     -52.489   5.345  12.571  0.00  0.00     0.009 A 
HETATM   34  C   UNK     0     -54.065   3.974  13.979  0.00  0.00     0.051 C 
HETATM   35  C   UNK     0     -51.309   5.518  11.817  0.00  0.00     0.001 A 
HETATM   36  C   UNK     0     -50.404   4.450  11.655  0.00  0.00     0.009 A 
HETATM   37  C   UNK     0     -50.671   3.193  12.248  0.00  0.00    -0.028 A 
HETATM   38  C   UNK     0     -49.690   2.085  12.059  0.00  0.00     0.051 C 
ENDBRANCH  30  31
ENDBRANCH  29  30
ENDBRANCH  26  29
ENDBRANCH  24  25
BRANCH  24  39
HETATM   39  C   UNK     0     -50.534  -2.618  14.238  0.00  0.00     0.066 C 
BRANCH  39  40
HETATM   40  C   UNK     0     -51.082  -3.712  15.134  0.00  0.00    -0.056 A 
HETATM   41  C   UNK     0     -50.199  -4.637  15.740  0.00  0.00     0.007 A 
HETATM   42  C   UNK     0     -50.688  -5.670  16.577  0.00  0.00     0.001 A 
HETATM   43  C   UNK     0     -52.071  -5.788  16.816  0.00  0.00     0.000 A 
HETATM   44  C   UNK     0     -52.961  -4.870  16.217  0.00  0.00     0.001 A 
HETATM   45  C   UNK     0     -52.473  -3.839  15.382  0.00  0.00     0.007 A 
ENDBRANCH  39  40
ENDBRANCH  24  39
ENDBRANCH  23  24
BRANCH  23  46
HETATM   46  O   UNK     0     -47.980  -0.269  13.871  0.00  0.00    -0.393 OA
HETATM   47  H   UNK     0     -48.680  -0.111  13.248  0.00  0.00     0.210 HD
ENDBRANCH  23  46
ENDBRANCH  22  23
ENDBRANCH  14  22
ENDBRANCH  11  14
ENDBRANCH   9  10
BRANCH   9  48
HETATM   48  C   UNK     0     -49.770  -0.679  19.675  0.00  0.00     0.010 C 
HETATM   49  C   UNK     0     -49.941  -1.943  18.811  0.00  0.00     0.012 C 
HETATM   50  C   UNK     0     -49.916  -1.079  21.162  0.00  0.00     0.012 C 
ENDBRANCH   9  48
ENDBRANCH   3   9
TORSDOF 16
ENDMDL
MODEL 3
REMARK VINA RESULT:      -5.3      2.038      7.950
REMARK  16 active torsions:
REMARK  status: ('A' for Active; 'I' for Inactive)
REMARK    1  A    between atoms: N_3  and  C_13 
REMARK    2  A    between atoms: C_6  and  C_37 
REMARK    3  A    between atoms: C_13  and  C_14 
REMARK    4  A    between atoms: C_13  and  C_17 
REMARK       I    between atoms: C_14  and  N_15 
REMARK    5  A    between atoms: N_15  and  C_16 
REMARK    6  A    between atoms: C_16  and  C_27 
REMARK    7  A    between atoms: C_16  and  C_28 
REMARK    8  A    between atoms: C_25  and  C_27 
REMARK    9  A    between atoms: C_28  and  C_29 
REMARK   10  A    between atoms: C_29  and  C_30 
REMARK   11  A    between atoms: C_29  and  O_36 
REMARK   12  A    between atoms: C_30  and  N_31 
REMARK   13  A    between atoms: C_30  and  C_37 
REMARK       I    between atoms: N_31  and  C_32 
REMARK   14  A    between atoms: C_32  and  C_33 
REMARK   15  A    between atoms: C_33  and  O_34 
REMARK   16  A    between atoms: O_34  and  C_35 
ROOT
HETATM    1  C   UNK     0     -46.676  -0.977  23.115  0.00  0.00     0.126 C 
HETATM    2  C   UNK     0     -46.305  -0.612  20.661  0.00  0.00     0.130 C 
HETATM    3  N   UNK     0     -47.800  -0.496  20.494  0.00  0.00    -0.320 N 
HETATM    4  C   UNK     0     -48.658  -0.618  21.578  0.00  0.00     0.319 C 
HETATM    5  N   UNK     0     -48.114  -0.842  22.808  0.00  0.00    -0.343 N 
HETATM    6  O   UNK     0     -49.868  -0.531  21.460  0.00  0.00    -0.247 OA
HETATM    7  C   UNK     0     -45.803  -0.262  22.077  0.00  0.00     0.040 C 
HETATM    8  H   UNK     0     -48.822  -0.913  23.539  0.00  0.00     0.164 HD
ENDROOT
BRANCH   3   9
HETATM    9  C   UNK     0     -48.385  -0.252  19.129  0.00  0.00     0.184 C 
BRANCH   9  10
HETATM   10  C   UNK     0     -47.615  -1.104  18.083  0.00  0.00     0.241 C 
HETATM   11  N   UNK     0     -47.021  -0.341  17.114  0.00  0.00    -0.354 N 
HETATM   12  H   UNK     0     -47.180   0.659  17.232  0.00  0.00     0.162 HD
HETATM   13  O   UNK     0     -47.570  -2.333  18.155  0.00  0.00    -0.271 OA
BRANCH  11  14
HETATM   14  C   UNK     0     -46.220  -0.877  15.991  0.00  0.00     0.091 C 
BRANCH  14  15
HETATM   15  C   UNK     0     -44.884  -1.463  16.502  0.00  0.00     0.063 C 
BRANCH  15  16
HETATM   16  C   UNK     0     -44.179  -0.738  17.614  0.00  0.00    -0.056 A 
HETATM   17  C   UNK     0     -43.375  -1.455  18.541  0.00  0.00     0.007 A 
HETATM   18  C   UNK     0     -42.708  -0.783  19.590  0.00  0.00     0.001 A 
HETATM   19  C   UNK     0     -42.837   0.619  19.723  0.00  0.00     0.000 A 
HETATM   20  C   UNK     0     -43.635   1.341  18.803  0.00  0.00     0.001 A 
HETATM   21  C   UNK     0     -44.303   0.664  17.754  0.00  0.00     0.007 A 
ENDBRANCH  15  16
ENDBRANCH  14  15
BRANCH  14  22
HETATM   22  C   UNK     0     -46.953  -2.032  15.274  0.00  0.00     0.059 C 
BRANCH  22  23
HETATM   23  C   UNK     0     -48.125  -1.724  14.324  0.00  0.00     0.143 C 
BRANCH  23  24
HETATM   24  C   UNK     0     -49.554  -2.010  14.851  0.00  0.00     0.117 C 
BRANCH  24  25
HETATM   25  N   UNK     0     -49.466  -3.077  15.875  0.00  0.00    -0.352 N 
HETATM   26  C   UNK     0     -49.879  -4.369  15.676  0.00  0.00     0.242 C 
HETATM   27  O   UNK     0     -50.367  -4.803  14.627  0.00  0.00    -0.271 OA
HETATM   28  H   UNK     0     -49.084  -2.905  16.805  0.00  0.00     0.163 HD
BRANCH  26  29
HETATM   29  C   UNK     0     -49.709  -5.290  16.900  0.00  0.00     0.278 C 
BRANCH  29  30
HETATM   30  O   UNK     0     -50.977  -5.682  17.457  0.00  0.00    -0.341 OA
BRANCH  30  31
HETATM   31  C   UNK     0     -51.800  -4.600  17.823  0.00  0.00     0.081 A 
HETATM   32  C   UNK     0     -51.440  -3.700  18.886  0.00  0.00    -0.028 A 
HETATM   33  C   UNK     0     -52.312  -2.626  19.208  0.00  0.00     0.009 A 
HETATM   34  C   UNK     0     -50.163  -3.854  19.678  0.00  0.00     0.051 C 
HETATM   35  C   UNK     0     -53.517  -2.433  18.500  0.00  0.00     0.001 A 
HETATM   36  C   UNK     0     -53.877  -3.307  17.455  0.00  0.00     0.009 A 
HETATM   37  C   UNK     0     -53.033  -4.389  17.107  0.00  0.00    -0.028 A 
HETATM   38  C   UNK     0     -53.443  -5.294  15.995  0.00  0.00     0.051 C 
ENDBRANCH  30  31
ENDBRANCH  29  30
ENDBRANCH  26  29
ENDBRANCH  24  25
BRANCH  24  39
HETATM   39  C   UNK     0     -50.168  -0.736  15.503  0.00  0.00     0.066 C 
BRANCH  39  40
HETATM   40  C   UNK     0     -51.678  -0.639  15.407  0.00  0.00    -0.056 A 
HETATM   41  C   UNK     0     -52.390  -1.528  14.565  0.00  0.00     0.007 A 
HETATM   42  C   UNK     0     -53.801  -1.453  14.455  0.00  0.00     0.001 A 
HETATM   43  C   UNK     0     -54.515  -0.487  15.189  0.00  0.00     0.000 A 
HETATM   44  C   UNK     0     -53.815   0.404  16.032  0.00  0.00     0.001 A 
HETATM   45  C   UNK     0     -52.407   0.330  16.142  0.00  0.00     0.007 A 
ENDBRANCH  39  40
ENDBRANCH  24  39
ENDBRANCH  23  24
BRANCH  23  46
HETATM   46  O   UNK     0     -48.049  -0.344  14.055  0.00  0.00    -0.393 OA
HETATM   47  H   UNK     0     -47.808   0.068  14.877  0.00  0.00     0.210 HD
ENDBRANCH  23  46
ENDBRANCH  22  23
ENDBRANCH  14  22
ENDBRANCH  11  14
ENDBRANCH   9  10
BRANCH   9  48
HETATM   48  C   UNK     0     -48.396   1.284  18.758  0.00  0.00     0.010 C 
HETATM   49  C   UNK     0     -49.792   1.929  18.857  0.00  0.00     0.012 C 
HETATM   50  C   UNK     0     -47.426   2.076  19.665  0.00  0.00     0.012 C 
ENDBRANCH   9  48
ENDBRANCH   3   9
TORSDOF 16
ENDMDL
MODEL 4
REMARK VINA RESULT:      -5.2      1.839      5.425
REMARK  16 active torsions:
REMARK  status: ('A' for Active; 'I' for Inactive)
REMARK    1  A    between atoms: N_3  and  C_13 
REMARK    2  A    between atoms: C_6  and  C_37 
REMARK    3  A    between atoms: C_13  and  C_14 
REMARK    4  A    between atoms: C_13  and  C_17 
REMARK       I    between atoms: C_14  and  N_15 
REMARK    5  A    between atoms: N_15  and  C_16 
REMARK    6  A    between atoms: C_16  and  C_27 
REMARK    7  A    between atoms: C_16  and  C_28 
REMARK    8  A    between atoms: C_25  and  C_27 
REMARK    9  A    between atoms: C_28  and  C_29 
REMARK   10  A    between atoms: C_29  and  C_30 
REMARK   11  A    between atoms: C_29  and  O_36 
REMARK   12  A    between atoms: C_30  and  N_31 
REMARK   13  A    between atoms: C_30  and  C_37 
REMARK       I    between atoms: N_31  and  C_32 
REMARK   14  A    between atoms: C_32  and  C_33 
REMARK   15  A    between atoms: C_33  and  O_34 
REMARK   16  A    between atoms: O_34  and  C_35 
ROOT
HETATM    1  C   UNK     0     -48.036  -7.352  20.983  0.00  0.00     0.126 C 
HETATM    2  C   UNK     0     -49.485  -5.593  19.933  0.00  0.00     0.130 C 
HETATM    3  N   UNK     0     -49.083  -6.129  18.580  0.00  0.00    -0.320 N 
HETATM    4  C   UNK     0     -48.214  -7.204  18.460  0.00  0.00     0.319 C 
HETATM    5  N   UNK     0     -47.729  -7.771  19.601  0.00  0.00    -0.343 N 
HETATM    6  O   UNK     0     -47.877  -7.646  17.375  0.00  0.00    -0.247 OA
HETATM    7  C   UNK     0     -49.385  -6.628  21.073  0.00  0.00     0.040 C 
HETATM    8  H   UNK     0     -47.103  -8.554  19.410  0.00  0.00     0.164 HD
ENDROOT
BRANCH   3   9
HETATM    9  C   UNK     0     -49.624  -5.488  17.331  0.00  0.00     0.184 C 
BRANCH   9  10
HETATM   10  C   UNK     0     -48.627  -4.403  16.841  0.00  0.00     0.241 C 
HETATM   11  N   UNK     0     -48.968  -3.884  15.620  0.00  0.00    -0.354 N 
HETATM   12  H   UNK     0     -49.817  -4.293  15.229  0.00  0.00     0.162 HD
HETATM   13  O   UNK     0     -47.646  -4.074  17.509  0.00  0.00    -0.271 OA
BRANCH  11  14
HETATM   14  C   UNK     0     -48.208  -2.834  14.907  0.00  0.00     0.091 C 
BRANCH  14  15
HETATM   15  C   UNK     0     -49.039  -2.253  13.740  0.00  0.00     0.063 C 
BRANCH  15  16
HETATM   16  C   UNK     0     -50.232  -1.407  14.081  0.00  0.00    -0.056 A 
HETATM   17  C   UNK     0     -50.136   0.011  14.056  0.00  0.00     0.007 A 
HETATM   18  C   UNK     0     -51.252   0.818  14.375  0.00  0.00     0.001 A 
HETATM   19  C   UNK     0     -52.481   0.212  14.724  0.00  0.00     0.000 A 
HETATM   20  C   UNK     0     -52.586  -1.199  14.751  0.00  0.00     0.001 A 
HETATM   21  C   UNK     0     -51.466  -2.003  14.431  0.00  0.00     0.007 A 
ENDBRANCH  15  16
ENDBRANCH  14  15
BRANCH  14  22
HETATM   22  C   UNK     0     -47.876  -1.646  15.836  0.00  0.00     0.059 C 
BRANCH  22  23
HETATM   23  C   UNK     0     -46.408  -1.255  16.086  0.00  0.00     0.143 C 
BRANCH  23  24
HETATM   24  C   UNK     0     -46.070  -0.624  17.461  0.00  0.00     0.117 C 
BRANCH  24  25
HETATM   25  N   UNK     0     -47.134  -1.004  18.419  0.00  0.00    -0.352 N 
HETATM   26  C   UNK     0     -47.680  -0.148  19.340  0.00  0.00     0.242 C 
HETATM   27  O   UNK     0     -47.362   1.038  19.482  0.00  0.00    -0.271 OA
HETATM   28  H   UNK     0     -47.528  -1.945  18.447  0.00  0.00     0.163 HD
BRANCH  26  29
HETATM   29  C   UNK     0     -48.754  -0.783  20.245  0.00  0.00     0.278 C 
BRANCH  29  30
HETATM   30  O   UNK     0     -49.814   0.142  20.550  0.00  0.00    -0.341 OA
BRANCH  30  31
HETATM   31  C   UNK     0     -51.077  -0.258  20.075  0.00  0.00     0.081 A 
HETATM   32  C   UNK     0     -51.908  -1.174  20.810  0.00  0.00    -0.028 A 
HETATM   33  C   UNK     0     -53.174  -1.538  20.278  0.00  0.00     0.009 A 
HETATM   34  C   UNK     0     -51.484  -1.767  22.132  0.00  0.00     0.051 C 
HETATM   35  C   UNK     0     -53.622  -1.012  19.048  0.00  0.00     0.001 A 
HETATM   36  C   UNK     0     -52.817  -0.112  18.322  0.00  0.00     0.009 A 
HETATM   37  C   UNK     0     -51.550   0.273  18.821  0.00  0.00    -0.028 A 
HETATM   38  C   UNK     0     -50.725   1.230  18.029  0.00  0.00     0.051 C 
ENDBRANCH  30  31
ENDBRANCH  29  30
ENDBRANCH  26  29
ENDBRANCH  24  25
BRANCH  24  39
HETATM   39  C   UNK     0     -44.704  -1.152  17.990  0.00  0.00     0.066 C 
BRANCH  39  40
HETATM   40  C   UNK     0     -43.800  -0.088  18.582  0.00  0.00    -0.056 A 
HETATM   41  C   UNK     0     -42.731  -0.463  19.432  0.00  0.00     0.007 A 
HETATM   42  C   UNK     0     -41.876   0.514  20.000  0.00  0.00     0.001 A 
HETATM   43  C   UNK     0     -42.082   1.878  19.722  0.00  0.00     0.000 A 
HETATM   44  C   UNK     0     -43.144   2.264  18.875  0.00  0.00     0.001 A 
HETATM   45  C   UNK     0     -43.998   1.289  18.308  0.00  0.00     0.007 A 
ENDBRANCH  39  40
ENDBRANCH  24  39
ENDBRANCH  23  24
BRANCH  23  46
HETATM   46  O   UNK     0     -45.669  -2.448  15.983  0.00  0.00    -0.393 OA
HETATM   47  H   UNK     0     -46.164  -3.102  16.465  0.00  0.00     0.210 HD
ENDBRANCH  23  46
ENDBRANCH  22  23
ENDBRANCH  14  22
ENDBRANCH  11  14
ENDBRANCH   9  10
BRANCH   9  48
HETATM   48  C   UNK     0     -51.079  -4.912  17.546  0.00  0.00     0.010 C 
HETATM   49  C   UNK     0     -51.110  -3.386  17.756  0.00  0.00     0.012 C 
HETATM   50  C   UNK     0     -51.991  -5.259  16.346  0.00  0.00     0.012 C 
ENDBRANCH   9  48
ENDBRANCH   3   9
TORSDOF 16
ENDMDL
MODEL 5
REMARK VINA RESULT:      -5.2      3.673      9.218
REMARK  16 active torsions:
REMARK  status: ('A' for Active; 'I' for Inactive)
REMARK    1  A    between atoms: N_3  and  C_13 
REMARK    2  A    between atoms: C_6  and  C_37 
REMARK    3  A    between atoms: C_13  and  C_14 
REMARK    4  A    between atoms: C_13  and  C_17 
REMARK       I    between atoms: C_14  and  N_15 
REMARK    5  A    between atoms: N_15  and  C_16 
REMARK    6  A    between atoms: C_16  and  C_27 
REMARK    7  A    between atoms: C_16  and  C_28 
REMARK    8  A    between atoms: C_25  and  C_27 
REMARK    9  A    between atoms: C_28  and  C_29 
REMARK   10  A    between atoms: C_29  and  C_30 
REMARK   11  A    between atoms: C_29  and  O_36 
REMARK   12  A    between atoms: C_30  and  N_31 
REMARK   13  A    between atoms: C_30  and  C_37 
REMARK       I    between atoms: N_31  and  C_32 
REMARK   14  A    between atoms: C_32  and  C_33 
REMARK   15  A    between atoms: C_33  and  O_34 
REMARK   16  A    between atoms: O_34  and  C_35 
ROOT
HETATM    1  C   UNK     0     -47.584   2.739  22.544  0.00  0.00     0.126 C 
HETATM    2  C   UNK     0     -45.682   1.300  21.763  0.00  0.00     0.130 C 
HETATM    3  N   UNK     0     -46.083   1.613  20.342  0.00  0.00    -0.320 N 
HETATM    4  C   UNK     0     -47.167   2.435  20.063  0.00  0.00     0.319 C 
HETATM    5  N   UNK     0     -47.864   2.959  21.111  0.00  0.00    -0.343 N 
HETATM    6  O   UNK     0     -47.507   2.694  18.922  0.00  0.00    -0.247 OA
HETATM    7  C   UNK     0     -46.115   2.370  22.787  0.00  0.00     0.040 C 
HETATM    8  H   UNK     0     -48.637   3.551  20.807  0.00  0.00     0.164 HD
ENDROOT
BRANCH   3   9
HETATM    9  C   UNK     0     -45.306   1.023  19.197  0.00  0.00     0.184 C 
BRANCH   9  10
HETATM   10  C   UNK     0     -46.021  -0.264  18.704  0.00  0.00     0.241 C 
HETATM   11  N   UNK     0     -46.638  -0.095  17.493  0.00  0.00    -0.354 N 
HETATM   12  H   UNK     0     -46.532   0.845  17.112  0.00  0.00     0.162 HD
HETATM   13  O   UNK     0     -46.011  -1.305  19.363  0.00  0.00    -0.271 OA
BRANCH  11  14
HETATM   14  C   UNK     0     -47.394  -1.147  16.777  0.00  0.00     0.091 C 
BRANCH  14  15
HETATM   15  C   UNK     0     -48.706  -1.483  17.524  0.00  0.00     0.063 C 
BRANCH  15  16
HETATM   16  C   UNK     0     -48.968  -2.922  17.867  0.00  0.00    -0.056 A 
HETATM   17  C   UNK     0     -48.410  -3.961  17.074  0.00  0.00     0.007 A 
HETATM   18  C   UNK     0     -48.650  -5.319  17.388  0.00  0.00     0.001 A 
HETATM   19  C   UNK     0     -49.453  -5.652  18.504  0.00  0.00     0.000 A 
HETATM   20  C   UNK     0     -50.011  -4.623  19.299  0.00  0.00     0.001 A 
HETATM   21  C   UNK     0     -49.769  -3.265  18.981  0.00  0.00     0.007 A 
ENDBRANCH  15  16
ENDBRANCH  14  15
BRANCH  14  22
HETATM   22  C   UNK     0     -47.807  -0.684  15.363  0.00  0.00     0.059 C 
BRANCH  22  23
HETATM   23  C   UNK     0     -48.878  -1.467  14.582  0.00  0.00     0.143 C 
BRANCH  23  24
HETATM   24  C   UNK     0     -50.342  -0.973  14.703  0.00  0.00     0.117 C 
BRANCH  24  25
HETATM   25  N   UNK     0     -50.493   0.238  13.863  0.00  0.00    -0.352 N 
HETATM   26  C   UNK     0     -51.208   1.348  14.237  0.00  0.00     0.242 C 
HETATM   27  O   UNK     0     -51.804   1.478  15.311  0.00  0.00    -0.271 OA
HETATM   28  H   UNK     0     -50.065   0.316  12.941  0.00  0.00     0.163 HD
BRANCH  26  29
HETATM   29  C   UNK     0     -51.241   2.471  13.182  0.00  0.00     0.278 C 
BRANCH  29  30
HETATM   30  O   UNK     0     -52.185   3.502  13.526  0.00  0.00    -0.341 OA
BRANCH  30  31
HETATM   31  C   UNK     0     -52.974   3.940  12.445  0.00  0.00     0.081 A 
HETATM   32  C   UNK     0     -52.552   5.014  11.586  0.00  0.00    -0.028 A 
HETATM   33  C   UNK     0     -53.391   5.409  10.510  0.00  0.00     0.009 A 
HETATM   34  C   UNK     0     -51.243   5.742  11.784  0.00  0.00     0.051 C 
HETATM   35  C   UNK     0     -54.623   4.762  10.276  0.00  0.00     0.001 A 
HETATM   36  C   UNK     0     -55.043   3.707  11.110  0.00  0.00     0.009 A 
HETATM   37  C   UNK     0     -54.233   3.287  12.192  0.00  0.00    -0.028 A 
HETATM   38  C   UNK     0     -54.707   2.166  13.053  0.00  0.00     0.051 C 
ENDBRANCH  30  31
ENDBRANCH  29  30
ENDBRANCH  26  29
ENDBRANCH  24  25
BRANCH  24  39
HETATM   39  C   UNK     0     -51.336  -2.061  14.198  0.00  0.00     0.066 C 
BRANCH  39  40
HETATM   40  C   UNK     0     -51.887  -2.967  15.282  0.00  0.00    -0.056 A 
HETATM   41  C   UNK     0     -51.725  -4.370  15.180  0.00  0.00     0.007 A 
HETATM   42  C   UNK     0     -52.237  -5.236  16.178  0.00  0.00     0.001 A 
HETATM   43  C   UNK     0     -52.915  -4.706  17.292  0.00  0.00     0.000 A 
HETATM   44  C   UNK     0     -53.082  -3.308  17.404  0.00  0.00     0.001 A 
HETATM   45  C   UNK     0     -52.572  -2.443  16.408  0.00  0.00     0.007 A 
ENDBRANCH  39  40
ENDBRANCH  24  39
ENDBRANCH  23  24
BRANCH  23  46
HETATM   46  O   UNK     0     -48.516  -1.366  13.226  0.00  0.00    -0.393 OA
HETATM   47  H   UNK     0     -48.455  -2.259  12.906  0.00  0.00     0.210 HD
ENDBRANCH  23  46
ENDBRANCH  22  23
ENDBRANCH  14  22
ENDBRANCH  11  14
ENDBRANCH   9  10
BRANCH   9  48
HETATM   48  C   UNK     0     -43.797   0.759  19.582  0.00  0.00     0.010 C 
HETATM   49  C   UNK     0     -43.179  -0.450  18.853  0.00  0.00     0.012 C 
HETATM   50  C   UNK     0     -42.928   2.004  19.289  0.00  0.00     0.012 C 
ENDBRANCH   9  48
ENDBRANCH   3   9
TORSDOF 16
ENDMDL
MODEL 6
REMARK VINA RESULT:      -5.1      2.742      9.015
REMARK  16 active torsions:
REMARK  status: ('A' for Active; 'I' for Inactive)
REMARK    1  A    between atoms: N_3  and  C_13 
REMARK    2  A    between atoms: C_6  and  C_37 
REMARK    3  A    between atoms: C_13  and  C_14 
REMARK    4  A    between atoms: C_13  and  C_17 
REMARK       I    between atoms: C_14  and  N_15 
REMARK    5  A    between atoms: N_15  and  C_16 
REMARK    6  A    between atoms: C_16  and  C_27 
REMARK    7  A    between atoms: C_16  and  C_28 
REMARK    8  A    between atoms: C_25  and  C_27 
REMARK    9  A    between atoms: C_28  and  C_29 
REMARK   10  A    between atoms: C_29  and  C_30 
REMARK   11  A    between atoms: C_29  and  O_36 
REMARK   12  A    between atoms: C_30  and  N_31 
REMARK   13  A    between atoms: C_30  and  C_37 
REMARK       I    between atoms: N_31  and  C_32 
REMARK   14  A    between atoms: C_32  and  C_33 
REMARK   15  A    between atoms: C_33  and  O_34 
REMARK   16  A    between atoms: O_34  and  C_35 
ROOT
HETATM    1  C   UNK     0     -50.609  -0.222  22.383  0.00  0.00     0.126 C 
HETATM    2  C   UNK     0     -48.110  -0.013  22.290  0.00  0.00     0.130 C 
HETATM    3  N   UNK     0     -48.288   1.399  21.789  0.00  0.00    -0.320 N 
HETATM    4  C   UNK     0     -49.552   1.944  21.602  0.00  0.00     0.319 C 
HETATM    5  N   UNK     0     -50.636   1.168  21.888  0.00  0.00    -0.343 N 
HETATM    6  O   UNK     0     -49.712   3.081  21.195  0.00  0.00    -0.247 OA
HETATM    7  C   UNK     0     -49.302  -0.540  23.118  0.00  0.00     0.040 C 
HETATM    8  H   UNK     0     -51.517   1.656  21.723  0.00  0.00     0.164 HD
ENDROOT
BRANCH   3   9
HETATM    9  C   UNK     0     -47.081   2.240  21.475  0.00  0.00     0.184 C 
BRANCH   9  10
HETATM   10  C   UNK     0     -46.495   1.801  20.105  0.00  0.00     0.241 C 
HETATM   11  N   UNK     0     -45.385   1.010  20.235  0.00  0.00    -0.354 N 
HETATM   12  H   UNK     0     -45.121   0.838  21.204  0.00  0.00     0.162 HD
HETATM   13  O   UNK     0     -47.004   2.152  19.040  0.00  0.00    -0.271 OA
BRANCH  11  14
HETATM   14  C   UNK     0     -44.618   0.442  19.104  0.00  0.00     0.091 C 
BRANCH  14  15
HETATM   15  C   UNK     0     -43.168   0.118  19.534  0.00  0.00     0.063 C 
BRANCH  15  16
HETATM   16  C   UNK     0     -42.195   1.258  19.637  0.00  0.00    -0.056 A 
HETATM   17  C   UNK     0     -41.108   1.193  20.551  0.00  0.00     0.007 A 
HETATM   18  C   UNK     0     -40.187   2.259  20.656  0.00  0.00     0.001 A 
HETATM   19  C   UNK     0     -40.343   3.407  19.844  0.00  0.00     0.000 A 
HETATM   20  C   UNK     0     -41.422   3.479  18.931  0.00  0.00     0.001 A 
HETATM   21  C   UNK     0     -42.343   2.409  18.829  0.00  0.00     0.007 A 
ENDBRANCH  15  16
ENDBRANCH  14  15
BRANCH  14  22
HETATM   22  C   UNK     0     -45.232  -0.888  18.615  0.00  0.00     0.059 C 
BRANCH  22  23
HETATM   23  C   UNK     0     -45.942  -0.948  17.250  0.00  0.00     0.143 C 
BRANCH  23  24
HETATM   24  C   UNK     0     -47.364  -1.564  17.222  0.00  0.00     0.117 C 
BRANCH  24  25
HETATM   25  N   UNK     0     -48.348  -0.462  17.339  0.00  0.00    -0.352 N 
HETATM   26  C   UNK     0     -49.258  -0.350  18.359  0.00  0.00     0.242 C 
HETATM   27  O   UNK     0     -49.367  -1.142  19.301  0.00  0.00    -0.271 OA
HETATM   28  H   UNK     0     -48.404   0.291  16.653  0.00  0.00     0.163 HD
BRANCH  26  29
HETATM   29  C   UNK     0     -50.194   0.869  18.249  0.00  0.00     0.278 C 
BRANCH  29  30
HETATM   30  O   UNK     0     -51.578   0.497  18.389  0.00  0.00    -0.341 OA
BRANCH  30  31
HETATM   31  C   UNK     0     -52.202   0.150  17.176  0.00  0.00     0.081 A 
HETATM   32  C   UNK     0     -52.527  -1.214  16.854  0.00  0.00    -0.028 A 
HETATM   33  C   UNK     0     -53.159  -1.500  15.615  0.00  0.00     0.009 A 
HETATM   34  C   UNK     0     -52.222  -2.360  17.790  0.00  0.00     0.051 C 
HETATM   35  C   UNK     0     -53.470  -0.469  14.704  0.00  0.00     0.001 A 
HETATM   36  C   UNK     0     -53.159   0.871  15.011  0.00  0.00     0.009 A 
HETATM   37  C   UNK     0     -52.529   1.194  16.237  0.00  0.00    -0.028 A 
HETATM   38  C   UNK     0     -52.215   2.621  16.531  0.00  0.00     0.051 C 
ENDBRANCH  30  31
ENDBRANCH  29  30
ENDBRANCH  26  29
ENDBRANCH  24  25
BRANCH  24  39
HETATM   39  C   UNK     0     -47.613  -2.318  15.882  0.00  0.00     0.066 C 
BRANCH  39  40
HETATM   40  C   UNK     0     -48.694  -3.380  15.945  0.00  0.00    -0.056 A 
HETATM   41  C   UNK     0     -49.742  -3.377  14.993  0.00  0.00     0.007 A 
HETATM   42  C   UNK     0     -50.766  -4.355  15.034  0.00  0.00     0.001 A 
HETATM   43  C   UNK     0     -50.751  -5.350  16.030  0.00  0.00     0.000 A 
HETATM   44  C   UNK     0     -49.710  -5.364  16.984  0.00  0.00     0.001 A 
HETATM   45  C   UNK     0     -48.688  -4.387  16.943  0.00  0.00     0.007 A 
ENDBRANCH  39  40
ENDBRANCH  24  39
ENDBRANCH  23  24
BRANCH  23  46
HETATM   46  O   UNK     0     -46.057   0.386  16.817  0.00  0.00    -0.393 OA
HETATM   47  H   UNK     0     -46.892   0.696  17.150  0.00  0.00     0.210 HD
ENDBRANCH  23  46
ENDBRANCH  22  23
ENDBRANCH  14  22
ENDBRANCH  11  14
ENDBRANCH   9  10
BRANCH   9  48
HETATM   48  C   UNK     0     -46.006   2.184  22.632  0.00  0.00     0.010 C 
HETATM   49  C   UNK     0     -44.741   3.012  22.335  0.00  0.00     0.012 C 
HETATM   50  C   UNK     0     -46.610   2.675  23.968  0.00  0.00     0.012 C 
ENDBRANCH   9  48
ENDBRANCH   3   9
TORSDOF 16
ENDMDL
MODEL 7
REMARK VINA RESULT:      -5.1      2.181      4.258
REMARK  16 active torsions:
REMARK  status: ('A' for Active; 'I' for Inactive)
REMARK    1  A    between atoms: N_3  and  C_13 
REMARK    2  A    between atoms: C_6  and  C_37 
REMARK    3  A    between atoms: C_13  and  C_14 
REMARK    4  A    between atoms: C_13  and  C_17 
REMARK       I    between atoms: C_14  and  N_15 
REMARK    5  A    between atoms: N_15  and  C_16 
REMARK    6  A    between atoms: C_16  and  C_27 
REMARK    7  A    between atoms: C_16  and  C_28 
REMARK    8  A    between atoms: C_25  and  C_27 
REMARK    9  A    between atoms: C_28  and  C_29 
REMARK   10  A    between atoms: C_29  and  C_30 
REMARK   11  A    between atoms: C_29  and  O_36 
REMARK   12  A    between atoms: C_30  and  N_31 
REMARK   13  A    between atoms: C_30  and  C_37 
REMARK       I    between atoms: N_31  and  C_32 
REMARK   14  A    between atoms: C_32  and  C_33 
REMARK   15  A    between atoms: C_33  and  O_34 
REMARK   16  A    between atoms: O_34  and  C_35 
ROOT
HETATM    1  C   UNK     0     -52.892  -2.502  19.823  0.00  0.00     0.126 C 
HETATM    2  C   UNK     0     -52.106  -4.096  18.052  0.00  0.00     0.130 C 
HETATM    3  N   UNK     0     -50.749  -4.097  18.714  0.00  0.00    -0.320 N 
HETATM    4  C   UNK     0     -50.502  -3.342  19.852  0.00  0.00     0.319 C 
HETATM    5  N   UNK     0     -51.522  -2.596  20.365  0.00  0.00    -0.343 N 
HETATM    6  O   UNK     0     -49.411  -3.328  20.396  0.00  0.00    -0.247 OA
HETATM    7  C   UNK     0     -53.268  -3.742  19.004  0.00  0.00     0.040 C 
HETATM    8  H   UNK     0     -51.244  -2.081  21.201  0.00  0.00     0.164 HD
ENDROOT
BRANCH   3   9
HETATM    9  C   UNK     0     -49.633  -4.922  18.133  0.00  0.00     0.184 C 
BRANCH   9  10
HETATM   10  C   UNK     0     -49.322  -4.422  16.696  0.00  0.00     0.241 C 
HETATM   11  N   UNK     0     -48.541  -3.297  16.685  0.00  0.00    -0.354 N 
HETATM   12  H   UNK     0     -48.292  -2.968  17.618  0.00  0.00     0.162 HD
HETATM   13  O   UNK     0     -49.754  -5.003  15.699  0.00  0.00    -0.271 OA
BRANCH  11  14
HETATM   14  C   UNK     0     -48.084  -2.599  15.463  0.00  0.00     0.091 C 
BRANCH  14  15
HETATM   15  C   UNK     0     -48.902  -1.307  15.233  0.00  0.00     0.063 C 
BRANCH  15  16
HETATM   16  C   UNK     0     -50.399  -1.400  15.316  0.00  0.00    -0.056 A 
HETATM   17  C   UNK     0     -51.131  -2.093  14.313  0.00  0.00     0.007 A 
HETATM   18  C   UNK     0     -52.539  -2.188  14.380  0.00  0.00     0.001 A 
HETATM   19  C   UNK     0     -53.234  -1.589  15.457  0.00  0.00     0.000 A 
HETATM   20  C   UNK     0     -52.513  -0.898  16.461  0.00  0.00     0.001 A 
HETATM   21  C   UNK     0     -51.102  -0.805  16.388  0.00  0.00     0.007 A 
ENDBRANCH  15  16
ENDBRANCH  14  15
BRANCH  14  22
HETATM   22  C   UNK     0     -46.608  -2.162  15.580  0.00  0.00     0.059 C 
BRANCH  22  23
HETATM   23  C   UNK     0     -46.242  -0.668  15.501  0.00  0.00     0.143 C 
BRANCH  23  24
HETATM   24  C   UNK     0     -45.816   0.025  16.821  0.00  0.00     0.117 C 
BRANCH  24  25
HETATM   25  N   UNK     0     -47.039   0.328  17.601  0.00  0.00    -0.352 N 
HETATM   26  C   UNK     0     -47.602  -0.529  18.510  0.00  0.00     0.242 C 
HETATM   27  O   UNK     0     -47.164  -1.649  18.795  0.00  0.00    -0.271 OA
HETATM   28  H   UNK     0     -47.539   1.211  17.502  0.00  0.00     0.163 HD
BRANCH  26  29
HETATM   29  C   UNK     0     -48.887   0.001  19.176  0.00  0.00     0.278 C 
BRANCH  29  30
HETATM   30  O   UNK     0     -48.760   0.068  20.609  0.00  0.00    -0.341 OA
BRANCH  30  31
HETATM   31  C   UNK     0     -47.767   0.961  21.054  0.00  0.00     0.081 A 
HETATM   32  C   UNK     0     -46.587   0.502  21.737  0.00  0.00    -0.028 A 
HETATM   33  C   UNK     0     -45.620   1.453  22.160  0.00  0.00     0.009 A 
HETATM   34  C   UNK     0     -46.335  -0.959  22.023  0.00  0.00     0.051 C 
HETATM   35  C   UNK     0     -45.802   2.831  21.916  0.00  0.00     0.001 A 
HETATM   36  C   UNK     0     -46.953   3.289  21.245  0.00  0.00     0.009 A 
HETATM   37  C   UNK     0     -47.939   2.371  20.810  0.00  0.00    -0.028 A 
HETATM   38  C   UNK     0     -49.143   2.890  20.100  0.00  0.00     0.051 C 
ENDBRANCH  30  31
ENDBRANCH  29  30
ENDBRANCH  26  29
ENDBRANCH  24  25
BRANCH  24  39
HETATM   39  C   UNK     0     -44.901  -0.911  17.665  0.00  0.00     0.066 C 
BRANCH  39  40
HETATM   40  C   UNK     0     -44.019  -0.196  18.670  0.00  0.00    -0.056 A 
HETATM   41  C   UNK     0     -43.746   1.185  18.514  0.00  0.00     0.007 A 
HETATM   42  C   UNK     0     -42.920   1.873  19.437  0.00  0.00     0.001 A 
HETATM   43  C   UNK     0     -42.360   1.185  20.530  0.00  0.00     0.000 A 
HETATM   44  C   UNK     0     -42.625  -0.192  20.697  0.00  0.00     0.001 A 
HETATM   45  C   UNK     0     -43.449  -0.879  19.774  0.00  0.00     0.007 A 
ENDBRANCH  39  40
ENDBRANCH  24  39
ENDBRANCH  23  24
BRANCH  23  46
HETATM   46  O   UNK     0     -45.150  -0.586  14.617  0.00  0.00    -0.393 OA
HETATM   47  H   UNK     0     -45.338   0.144  14.038  0.00  0.00     0.210 HD
ENDBRANCH  23  46
ENDBRANCH  22  23
ENDBRANCH  14  22
ENDBRANCH  11  14
ENDBRANCH   9  10
BRANCH   9  48
HETATM   48  C   UNK     0     -49.961  -6.467  18.171  0.00  0.00     0.010 C 
HETATM   49  C   UNK     0     -48.775  -7.357  17.751  0.00  0.00     0.012 C 
HETATM   50  C   UNK     0     -50.420  -6.898  19.583  0.00  0.00     0.012 C 
ENDBRANCH   9  48
ENDBRANCH   3   9
TORSDOF 16
ENDMDL
MODEL 8
REMARK VINA RESULT:      -5.1      2.884      9.230
REMARK  16 active torsions:
REMARK  status: ('A' for Active; 'I' for Inactive)
REMARK    1  A    between atoms: N_3  and  C_13 
REMARK    2  A    between atoms: C_6  and  C_37 
REMARK    3  A    between atoms: C_13  and  C_14 
REMARK    4  A    between atoms: C_13  and  C_17 
REMARK       I    between atoms: C_14  and  N_15 
REMARK    5  A    between atoms: N_15  and  C_16 
REMARK    6  A    between atoms: C_16  and  C_27 
REMARK    7  A    between atoms: C_16  and  C_28 
REMARK    8  A    between atoms: C_25  and  C_27 
REMARK    9  A    between atoms: C_28  and  C_29 
REMARK   10  A    between atoms: C_29  and  C_30 
REMARK   11  A    between atoms: C_29  and  O_36 
REMARK   12  A    between atoms: C_30  and  N_31 
REMARK   13  A    between atoms: C_30  and  C_37 
REMARK       I    between atoms: N_31  and  C_32 
REMARK   14  A    between atoms: C_32  and  C_33 
REMARK   15  A    between atoms: C_33  and  O_34 
REMARK   16  A    between atoms: O_34  and  C_35 
ROOT
HETATM    1  C   UNK     0     -44.142   2.903  24.620  0.00  0.00     0.126 C 
HETATM    2  C   UNK     0     -45.043   3.084  22.285  0.00  0.00     0.130 C 
HETATM    3  N   UNK     0     -46.092   2.064  22.655  0.00  0.00    -0.320 N 
HETATM    4  C   UNK     0     -46.143   1.512  23.927  0.00  0.00     0.319 C 
HETATM    5  N   UNK     0     -45.219   1.918  24.844  0.00  0.00    -0.343 N 
HETATM    6  O   UNK     0     -46.982   0.684  24.241  0.00  0.00    -0.247 OA
HETATM    7  C   UNK     0     -44.487   3.877  23.487  0.00  0.00     0.040 C 
HETATM    8  H   UNK     0     -45.340   1.460  25.747  0.00  0.00     0.164 HD
ENDROOT
BRANCH   3   9
HETATM    9  C   UNK     0     -47.102   1.624  21.630  0.00  0.00     0.184 C 
BRANCH   9  10
HETATM   10  C   UNK     0     -46.400   1.472  20.253  0.00  0.00     0.241 C 
HETATM   11  N   UNK     0     -45.302   0.656  20.306  0.00  0.00    -0.354 N 
HETATM   12  H   UNK     0     -45.121   0.282  21.237  0.00  0.00     0.162 HD
HETATM   13  O   UNK     0     -46.819   2.044  19.245  0.00  0.00    -0.271 OA
BRANCH  11  14
HETATM   14  C   UNK     0     -44.440   0.326  19.150  0.00  0.00     0.091 C 
BRANCH  14  15
HETATM   15  C   UNK     0     -42.980   0.095  19.605  0.00  0.00     0.063 C 
BRANCH  15  16
HETATM   16  C   UNK     0     -42.067   1.286  19.665  0.00  0.00    -0.056 A 
HETATM   17  C   UNK     0     -40.949   1.289  20.542  0.00  0.00     0.007 A 
HETATM   18  C   UNK     0     -40.083   2.404  20.607  0.00  0.00     0.001 A 
HETATM   19  C   UNK     0     -40.327   3.533  19.790  0.00  0.00     0.000 A 
HETATM   20  C   UNK     0     -41.438   3.538  18.913  0.00  0.00     0.001 A 
HETATM   21  C   UNK     0     -42.303   2.419  18.852  0.00  0.00     0.007 A 
ENDBRANCH  15  16
ENDBRANCH  14  15
BRANCH  14  22
HETATM   22  C   UNK     0     -44.891  -0.981  18.462  0.00  0.00     0.059 C 
BRANCH  22  23
HETATM   23  C   UNK     0     -45.798  -0.920  17.220  0.00  0.00     0.143 C 
BRANCH  23  24
HETATM   24  C   UNK     0     -47.170  -1.637  17.312  0.00  0.00     0.117 C 
BRANCH  24  25
HETATM   25  N   UNK     0     -48.143  -0.701  17.922  0.00  0.00    -0.352 N 
HETATM   26  C   UNK     0     -48.926  -1.005  19.005  0.00  0.00     0.242 C 
HETATM   27  O   UNK     0     -48.916  -2.084  19.607  0.00  0.00    -0.271 OA
HETATM   28  H   UNK     0     -48.286   0.243  17.561  0.00  0.00     0.163 HD
BRANCH  26  29
HETATM   29  C   UNK     0     -49.880   0.125  19.441  0.00  0.00     0.278 C 
BRANCH  29  30
HETATM   30  O   UNK     0     -51.257  -0.208  19.186  0.00  0.00    -0.341 OA
BRANCH  30  31
HETATM   31  C   UNK     0     -51.619  -0.144  17.827  0.00  0.00     0.081 A 
HETATM   32  C   UNK     0     -51.627   1.099  17.103  0.00  0.00    -0.028 A 
HETATM   33  C   UNK     0     -52.000   1.098  15.732  0.00  0.00     0.009 A 
HETATM   34  C   UNK     0     -51.252   2.413  17.747  0.00  0.00     0.051 C 
HETATM   35  C   UNK     0     -52.357  -0.100  15.079  0.00  0.00     0.001 A 
HETATM   36  C   UNK     0     -52.349  -1.323  15.779  0.00  0.00     0.009 A 
HETATM   37  C   UNK     0     -51.984  -1.360  17.146  0.00  0.00    -0.028 A 
HETATM   38  C   UNK     0     -51.984  -2.671  17.856  0.00  0.00     0.051 C 
ENDBRANCH  30  31
ENDBRANCH  29  30
ENDBRANCH  26  29
ENDBRANCH  24  25
BRANCH  24  39
HETATM   39  C   UNK     0     -47.679  -2.040  15.896  0.00  0.00     0.066 C 
BRANCH  39  40
HETATM   40  C   UNK     0     -48.634  -3.217  15.877  0.00  0.00    -0.056 A 
HETATM   41  C   UNK     0     -48.545  -4.215  16.878  0.00  0.00     0.007 A 
HETATM   42  C   UNK     0     -49.424  -5.326  16.878  0.00  0.00     0.001 A 
HETATM   43  C   UNK     0     -50.403  -5.451  15.875  0.00  0.00     0.000 A 
HETATM   44  C   UNK     0     -50.502  -4.462  14.872  0.00  0.00     0.001 A 
HETATM   45  C   UNK     0     -49.624  -3.352  14.872  0.00  0.00     0.007 A 
ENDBRANCH  39  40
ENDBRANCH  24  39
ENDBRANCH  23  24
BRANCH  23  46
HETATM   46  O   UNK     0     -46.057   0.445  17.000  0.00  0.00    -0.393 OA
HETATM   47  H   UNK     0     -46.159   0.542  16.060  0.00  0.00     0.210 HD
ENDBRANCH  23  46
ENDBRANCH  22  23
ENDBRANCH  14  22
ENDBRANCH  11  14
ENDBRANCH   9  10
BRANCH   9  48
HETATM   48  C   UNK     0     -48.342   2.601  21.566  0.00  0.00     0.010 C 
HETATM   49  C   UNK     0     -49.504   2.180  22.486  0.00  0.00     0.012 C 
HETATM   50  C   UNK     0     -47.924   4.044  21.934  0.00  0.00     0.012 C 
ENDBRANCH   9  48
ENDBRANCH   3   9
TORSDOF 16
ENDMDL
MODEL 9
REMARK VINA RESULT:      -5.0      2.526      8.777
REMARK  16 active torsions:
REMARK  status: ('A' for Active; 'I' for Inactive)
REMARK    1  A    between atoms: N_3  and  C_13 
REMARK    2  A    between atoms: C_6  and  C_37 
REMARK    3  A    between atoms: C_13  and  C_14 
REMARK    4  A    between atoms: C_13  and  C_17 
REMARK       I    between atoms: C_14  and  N_15 
REMARK    5  A    between atoms: N_15  and  C_16 
REMARK    6  A    between atoms: C_16  and  C_27 
REMARK    7  A    between atoms: C_16  and  C_28 
REMARK    8  A    between atoms: C_25  and  C_27 
REMARK    9  A    between atoms: C_28  and  C_29 
REMARK   10  A    between atoms: C_29  and  C_30 
REMARK   11  A    between atoms: C_29  and  O_36 
REMARK   12  A    between atoms: C_30  and  N_31 
REMARK   13  A    between atoms: C_30  and  C_37 
REMARK       I    between atoms: N_31  and  C_32 
REMARK   14  A    between atoms: C_32  and  C_33 
REMARK   15  A    between atoms: C_33  and  O_34 
REMARK   16  A    between atoms: O_34  and  C_35 
ROOT
HETATM    1  C   UNK     0     -49.249   4.121  23.372  0.00  0.00     0.126 C 
HETATM    2  C   UNK     0     -49.916   3.218  21.128  0.00  0.00     0.130 C 
HETATM    3  N   UNK     0     -48.901   2.116  21.317  0.00  0.00    -0.320 N 
HETATM    4  C   UNK     0     -48.122   2.042  22.463  0.00  0.00     0.319 C 
HETATM    5  N   UNK     0     -48.298   2.993  23.424  0.00  0.00    -0.343 N 
HETATM    6  O   UNK     0     -47.296   1.162  22.629  0.00  0.00    -0.247 OA
HETATM    7  C   UNK     0     -50.436   3.824  22.448  0.00  0.00     0.040 C 
HETATM    8  H   UNK     0     -47.685   2.853  24.227  0.00  0.00     0.164 HD
ENDROOT
BRANCH   3   9
HETATM    9  C   UNK     0     -48.717   1.076  20.245  0.00  0.00     0.184 C 
BRANCH   9  10
HETATM   10  C   UNK     0     -47.535   1.493  19.327  0.00  0.00     0.241 C 
HETATM   11  N   UNK     0     -46.762   0.430  18.945  0.00  0.00    -0.354 N 
HETATM   12  H   UNK     0     -47.082  -0.461  19.324  0.00  0.00     0.162 HD
HETATM   13  O   UNK     0     -47.349   2.667  19.002  0.00  0.00    -0.271 OA
BRANCH  11  14
HETATM   14  C   UNK     0     -45.572   0.523  18.070  0.00  0.00     0.091 C 
BRANCH  14  15
HETATM   15  C   UNK     0     -44.338  -0.108  18.756  0.00  0.00     0.063 C 
BRANCH  15  16
HETATM   16  C   UNK     0     -43.218   0.807  19.165  0.00  0.00    -0.056 A 
HETATM   17  C   UNK     0     -42.348   0.443  20.228  0.00  0.00     0.007 A 
HETATM   18  C   UNK     0     -41.291   1.296  20.621  0.00  0.00     0.001 A 
HETATM   19  C   UNK     0     -41.092   2.525  19.951  0.00  0.00     0.000 A 
HETATM   20  C   UNK     0     -41.954   2.894  18.891  0.00  0.00     0.001 A 
HETATM   21  C   UNK     0     -43.012   2.038  18.501  0.00  0.00     0.007 A 
ENDBRANCH  15  16
ENDBRANCH  14  15
BRANCH  14  22
HETATM   22  C   UNK     0     -45.777  -0.252  16.751  0.00  0.00     0.059 C 
BRANCH  22  23
HETATM   23  C   UNK     0     -46.123  -1.752  16.788  0.00  0.00     0.143 C 
BRANCH  23  24
HETATM   24  C   UNK     0     -47.623  -2.128  16.895  0.00  0.00     0.117 C 
BRANCH  24  25
HETATM   25  N   UNK     0     -48.399  -1.176  16.067  0.00  0.00    -0.352 N 
HETATM   26  C   UNK     0     -48.657  -1.351  14.732  0.00  0.00     0.242 C 
HETATM   27  O   UNK     0     -48.283  -2.318  14.059  0.00  0.00    -0.271 OA
HETATM   28  H   UNK     0     -48.794  -0.318  16.453  0.00  0.00     0.163 HD
BRANCH  26  29
HETATM   29  C   UNK     0     -49.464  -0.211  14.081  0.00  0.00     0.278 C 
BRANCH  29  30
HETATM   30  O   UNK     0     -50.847  -0.566  13.903  0.00  0.00    -0.341 OA
BRANCH  30  31
HETATM   31  C   UNK     0     -51.716   0.033  14.835  0.00  0.00     0.081 A 
HETATM   32  C   UNK     0     -52.076   1.423  14.750  0.00  0.00    -0.028 A 
HETATM   33  C   UNK     0     -52.959   1.969  15.720  0.00  0.00     0.009 A 
HETATM   34  C   UNK     0     -51.550   2.330  13.663  0.00  0.00     0.051 C 
HETATM   35  C   UNK     0     -53.484   1.167  16.756  0.00  0.00     0.001 A 
HETATM   36  C   UNK     0     -53.139  -0.197  16.846  0.00  0.00     0.009 A 
HETATM   37  C   UNK     0     -52.261  -0.774  15.897  0.00  0.00    -0.028 A 
HETATM   38  C   UNK     0     -51.919  -2.220  16.020  0.00  0.00     0.051 C 
ENDBRANCH  30  31
ENDBRANCH  29  30
ENDBRANCH  26  29
ENDBRANCH  24  25
BRANCH  24  39
HETATM   39  C   UNK     0     -47.870  -3.571  16.365  0.00  0.00     0.066 C 
BRANCH  39  40
HETATM   40  C   UNK     0     -49.056  -4.281  16.989  0.00  0.00    -0.056 A 
HETATM   41  C   UNK     0     -49.752  -5.272  16.255  0.00  0.00     0.007 A 
HETATM   42  C   UNK     0     -50.866  -5.945  16.815  0.00  0.00     0.001 A 
HETATM   43  C   UNK     0     -51.295  -5.633  18.119  0.00  0.00     0.000 A 
HETATM   44  C   UNK     0     -50.608  -4.647  18.861  0.00  0.00     0.001 A 
HETATM   45  C   UNK     0     -49.496  -3.975  18.302  0.00  0.00     0.007 A 
ENDBRANCH  39  40
ENDBRANCH  24  39
ENDBRANCH  23  24
BRANCH  23  46
HETATM   46  O   UNK     0     -45.645  -2.287  15.578  0.00  0.00    -0.393 OA
HETATM   47  H   UNK     0     -45.061  -2.997  15.820  0.00  0.00     0.210 HD
ENDBRANCH  23  46
ENDBRANCH  22  23
ENDBRANCH  14  22
ENDBRANCH  11  14
ENDBRANCH   9  10
BRANCH   9  48
HETATM   48  C   UNK     0     -50.047   0.825  19.431  0.00  0.00     0.010 C 
HETATM   49  C   UNK     0     -50.041   1.467  18.031  0.00  0.00     0.012 C 
HETATM   50  C   UNK     0     -50.319  -0.689  19.274  0.00  0.00     0.012 C 
ENDBRANCH   9  48
ENDBRANCH   3   9
TORSDOF 16
ENDMDL
MODEL 10
REMARK VINA RESULT:      -5.0      3.439      8.514
REMARK  16 active torsions:
REMARK  status: ('A' for Active; 'I' for Inactive)
REMARK    1  A    between atoms: N_3  and  C_13 
REMARK    2  A    between atoms: C_6  and  C_37 
REMARK    3  A    between atoms: C_13  and  C_14 
REMARK    4  A    between atoms: C_13  and  C_17 
REMARK       I    between atoms: C_14  and  N_15 
REMARK    5  A    between atoms: N_15  and  C_16 
REMARK    6  A    between atoms: C_16  and  C_27 
REMARK    7  A    between atoms: C_16  and  C_28 
REMARK    8  A    between atoms: C_25  and  C_27 
REMARK    9  A    between atoms: C_28  and  C_29 
REMARK   10  A    between atoms: C_29  and  C_30 
REMARK   11  A    between atoms: C_29  and  O_36 
REMARK   12  A    between atoms: C_30  and  N_31 
REMARK   13  A    between atoms: C_30  and  C_37 
REMARK       I    between atoms: N_31  and  C_32 
REMARK   14  A    between atoms: C_32  and  C_33 
REMARK   15  A    between atoms: C_33  and  O_34 
REMARK   16  A    between atoms: O_34  and  C_35 
ROOT
HETATM    1  C   UNK     0     -46.439   1.658  20.620  0.00  0.00     0.126 C 
HETATM    2  C   UNK     0     -44.916   0.431  19.049  0.00  0.00     0.130 C 
HETATM    3  N   UNK     0     -46.096   0.228  18.129  0.00  0.00    -0.320 N 
HETATM    4  C   UNK     0     -47.354   0.715  18.454  0.00  0.00     0.319 C 
HETATM    5  N   UNK     0     -47.501   1.388  19.630  0.00  0.00    -0.343 N 
HETATM    6  O   UNK     0     -48.318   0.556  17.724  0.00  0.00    -0.247 OA
HETATM    7  C   UNK     0     -45.047   1.656  19.977  0.00  0.00     0.040 C 
HETATM    8  H   UNK     0     -48.458   1.708  19.778  0.00  0.00     0.164 HD
ENDROOT
BRANCH   3   9
HETATM    9  C   UNK     0     -45.917  -0.521  16.836  0.00  0.00     0.184 C 
BRANCH   9  10
HETATM   10  C   UNK     0     -46.798  -1.800  16.861  0.00  0.00     0.241 C 
HETATM   11  N   UNK     0     -47.715  -1.830  15.844  0.00  0.00    -0.354 N 
HETATM   12  H   UNK     0     -47.674  -1.011  15.238  0.00  0.00     0.162 HD
HETATM   13  O   UNK     0     -46.655  -2.669  17.722  0.00  0.00    -0.271 OA
BRANCH  11  14
HETATM   14  C   UNK     0     -48.685  -2.924  15.615  0.00  0.00     0.091 C 
BRANCH  14  15
HETATM   15  C   UNK     0     -49.750  -2.954  16.735  0.00  0.00     0.063 C 
BRANCH  15  16
HETATM   16  C   UNK     0     -50.025  -4.269  17.406  0.00  0.00    -0.056 A 
HETATM   17  C   UNK     0     -49.729  -5.490  16.740  0.00  0.00     0.007 A 
HETATM   18  C   UNK     0     -49.983  -6.733  17.362  0.00  0.00     0.001 A 
HETATM   19  C   UNK     0     -50.537  -6.770  18.662  0.00  0.00     0.000 A 
HETATM   20  C   UNK     0     -50.835  -5.559  19.333  0.00  0.00     0.001 A 
HETATM   21  C   UNK     0     -50.579  -4.316  18.706  0.00  0.00     0.007 A 
ENDBRANCH  15  16
ENDBRANCH  14  15
BRANCH  14  22
HETATM   22  C   UNK     0     -49.454  -2.729  14.290  0.00  0.00     0.059 C 
BRANCH  22  23
HETATM   23  C   UNK     0     -50.274  -1.447  14.061  0.00  0.00     0.143 C 
BRANCH  23  24
HETATM   24  C   UNK     0     -51.636  -1.340  14.794  0.00  0.00     0.117 C 
BRANCH  24  25
HETATM   25  N   UNK     0     -52.264  -0.051  14.421  0.00  0.00    -0.352 N 
HETATM   26  C   UNK     0     -52.197   1.085  15.185  0.00  0.00     0.242 C 
HETATM   27  O   UNK     0     -51.607   1.178  16.267  0.00  0.00    -0.271 OA
HETATM   28  H   UNK     0     -52.791   0.065  13.555  0.00  0.00     0.163 HD
BRANCH  26  29
HETATM   29  C   UNK     0     -52.951   2.295  14.599  0.00  0.00     0.278 C 
BRANCH  29  30
HETATM   30  O   UNK     0     -52.114   3.463  14.522  0.00  0.00    -0.341 OA
BRANCH  30  31
HETATM   31  C   UNK     0     -52.318   4.238  13.364  0.00  0.00     0.081 A 
HETATM   32  C   UNK     0     -53.302   5.286  13.318  0.00  0.00    -0.028 A 
HETATM   33  C   UNK     0     -53.460   6.035  12.121  0.00  0.00     0.009 A 
HETATM   34  C   UNK     0     -54.179   5.625  14.501  0.00  0.00     0.051 C 
HETATM   35  C   UNK     0     -52.666   5.764  10.987  0.00  0.00     0.001 A 
HETATM   36  C   UNK     0     -51.697   4.741  11.023  0.00  0.00     0.009 A 
HETATM   37  C   UNK     0     -51.512   3.974  12.199  0.00  0.00    -0.028 A 
HETATM   38  C   UNK     0     -50.477   2.901  12.203  0.00  0.00     0.051 C 
ENDBRANCH  30  31
ENDBRANCH  29  30
ENDBRANCH  26  29
ENDBRANCH  24  25
BRANCH  24  39
HETATM   39  C   UNK     0     -52.584  -2.501  14.370  0.00  0.00     0.066 C 
BRANCH  39  40
HETATM   40  C   UNK     0     -53.099  -3.350  15.516  0.00  0.00    -0.056 A 
HETATM   41  C   UNK     0     -53.093  -4.762  15.409  0.00  0.00     0.007 A 
HETATM   42  C   UNK     0     -53.574  -5.574  16.465  0.00  0.00     0.001 A 
HETATM   43  C   UNK     0     -54.065  -4.981  17.643  0.00  0.00     0.000 A 
HETATM   44  C   UNK     0     -54.075  -3.574  17.762  0.00  0.00     0.001 A 
HETATM   45  C   UNK     0     -53.596  -2.763  16.708  0.00  0.00     0.007 A 
ENDBRANCH  39  40
ENDBRANCH  24  39
ENDBRANCH  23  24
BRANCH  23  46
HETATM   46  O   UNK     0     -49.470  -0.388  14.522  0.00  0.00    -0.393 OA
HETATM   47  H   UNK     0     -48.578  -0.718  14.515  0.00  0.00     0.210 HD
ENDBRANCH  23  46
ENDBRANCH  22  23
ENDBRANCH  14  22
ENDBRANCH  11  14
ENDBRANCH   9  10
BRANCH   9  48
HETATM   48  C   UNK     0     -44.399  -0.845  16.547  0.00  0.00     0.010 C 
HETATM   49  C   UNK     0     -43.810  -1.916  17.485  0.00  0.00     0.012 C 
HETATM   50  C   UNK     0     -44.205  -1.315  15.086  0.00  0.00     0.012 C 
ENDBRANCH   9  48
ENDBRANCH   3   9
TORSDOF 16
ENDMDL
