MODEL 1
REMARK VINA RESULT:      -7.4      0.000      0.000
REMARK  4 active torsions:
REMARK  status: ('A' for Active; 'I' for Inactive)
REMARK    1  A    between atoms: O_2  and  C_9 
REMARK    2  A    between atoms: O_3  and  C_14 
REMARK    3  A    between atoms: O_4  and  C_15 
REMARK    4  A    between atoms: C_8  and  C_12 
ROOT
HETATM    1  O   UNK     0     -43.919   0.075  17.584  0.00  0.00    -0.309 OA
HETATM    2  O   UNK     0     -47.638   1.221  18.787  0.00  0.00    -0.287 OA
HETATM    3  C   UNK     0     -46.328  -0.128  17.356  0.00  0.00     0.084 A 
HETATM    4  C   UNK     0     -45.028  -0.475  16.994  0.00  0.00     0.096 A 
HETATM    5  C   UNK     0     -44.101   1.024  18.578  0.00  0.00     0.090 A 
HETATM    6  C   UNK     0     -47.421  -0.721  16.721  0.00  0.00     0.118 A 
HETATM    7  C   UNK     0     -46.526   0.872  18.417  0.00  0.00     0.190 A 
HETATM    8  C   UNK     0     -45.301   1.436  19.019  0.00  0.00     0.094 A 
HETATM    9  C   UNK     0     -44.813  -1.422  15.992  0.00  0.00     0.077 A 
HETATM   10  C   UNK     0     -47.203  -1.668  15.718  0.00  0.00     0.133 A 
HETATM   11  C   UNK     0     -45.902  -2.016  15.355  0.00  0.00     0.104 A 
ENDROOT
BRANCH   5  12
HETATM   12  C   UNK     0     -42.843   1.545  19.148  0.00  0.00    -0.002 A 
HETATM   13  C   UNK     0     -42.316   2.757  18.694  0.00  0.00     0.014 A 
HETATM   14  C   UNK     0     -41.127   3.250  19.232  0.00  0.00     0.001 A 
HETATM   15  C   UNK     0     -40.461   2.533  20.226  0.00  0.00     0.000 A 
HETATM   16  C   UNK     0     -40.984   1.323  20.682  0.00  0.00     0.001 A 
HETATM   17  C   UNK     0     -42.172   0.830  20.143  0.00  0.00     0.014 A 
ENDBRANCH   5  12
BRANCH   6  18
HETATM   18  O   UNK     0     -48.707  -0.406  17.048  0.00  0.00    -0.357 OA
HETATM   19  H   UNK     0     -49.316  -0.676  16.344  0.00  0.00     0.217 HD
ENDBRANCH   6  18
BRANCH  11  20
HETATM   20  O   UNK     0     -45.680  -2.939  14.376  0.00  0.00    -0.358 OA
HETATM   21  H   UNK     0     -45.745  -3.826  14.772  0.00  0.00     0.217 HD
ENDBRANCH  11  20
BRANCH  10  22
HETATM   22  O   UNK     0     -48.262  -2.255  15.091  0.00  0.00    -0.356 OA
HETATM   23  H   UNK     0     -48.755  -1.567  14.609  0.00  0.00     0.218 HD
ENDBRANCH  10  22
TORSDOF 4
ENDMDL
MODEL 2
REMARK VINA RESULT:      -6.5      2.414      3.983
REMARK  4 active torsions:
REMARK  status: ('A' for Active; 'I' for Inactive)
REMARK    1  A    between atoms: O_2  and  C_9 
REMARK    2  A    between atoms: O_3  and  C_14 
REMARK    3  A    between atoms: O_4  and  C_15 
REMARK    4  A    between atoms: C_8  and  C_12 
ROOT
HETATM    1  O   UNK     0     -46.522  -2.535  17.466  0.00  0.00    -0.309 OA
HETATM    2  O   UNK     0     -48.144  -0.441  14.371  0.00  0.00    -0.287 OA
HETATM    3  C   UNK     0     -48.202  -2.379  15.720  0.00  0.00     0.084 A 
HETATM    4  C   UNK     0     -47.600  -3.042  16.787  0.00  0.00     0.096 A 
HETATM    5  C   UNK     0     -46.006  -1.312  17.065  0.00  0.00     0.090 A 
HETATM    6  C   UNK     0     -49.300  -2.944  15.066  0.00  0.00     0.118 A 
HETATM    7  C   UNK     0     -47.663  -1.078  15.297  0.00  0.00     0.190 A 
HETATM    8  C   UNK     0     -46.501  -0.576  16.058  0.00  0.00     0.094 A 
HETATM    9  C   UNK     0     -48.094  -4.278  17.209  0.00  0.00     0.077 A 
HETATM   10  C   UNK     0     -49.791  -4.180  15.489  0.00  0.00     0.133 A 
HETATM   11  C   UNK     0     -49.189  -4.845  16.558  0.00  0.00     0.104 A 
ENDROOT
BRANCH   5  12
HETATM   12  C   UNK     0     -44.851  -0.857  17.866  0.00  0.00    -0.002 A 
HETATM   13  C   UNK     0     -43.949  -1.787  18.388  0.00  0.00     0.014 A 
HETATM   14  C   UNK     0     -42.858  -1.358  19.145  0.00  0.00     0.001 A 
HETATM   15  C   UNK     0     -42.668   0.004  19.382  0.00  0.00     0.000 A 
HETATM   16  C   UNK     0     -43.566   0.935  18.863  0.00  0.00     0.001 A 
HETATM   17  C   UNK     0     -44.657   0.505  18.107  0.00  0.00     0.014 A 
ENDBRANCH   5  12
BRANCH   6  18
HETATM   18  O   UNK     0     -49.914  -2.326  14.017  0.00  0.00    -0.357 OA
HETATM   19  H   UNK     0     -50.838  -2.124  14.231  0.00  0.00     0.217 HD
ENDBRANCH   6  18
BRANCH  11  20
HETATM   20  O   UNK     0     -49.663  -6.053  16.977  0.00  0.00    -0.358 OA
HETATM   21  H   UNK     0     -50.462  -6.263  16.463  0.00  0.00     0.217 HD
ENDBRANCH  11  20
BRANCH  10  22
HETATM   22  O   UNK     0     -50.862  -4.742  14.859  0.00  0.00    -0.356 OA
HETATM   23  H   UNK     0     -50.575  -5.577  14.449  0.00  0.00     0.218 HD
ENDBRANCH  10  22
TORSDOF 4
ENDMDL
MODEL 3
REMARK VINA RESULT:      -6.1      1.819      2.851
REMARK  4 active torsions:
REMARK  status: ('A' for Active; 'I' for Inactive)
REMARK    1  A    between atoms: O_2  and  C_9 
REMARK    2  A    between atoms: O_3  and  C_14 
REMARK    3  A    between atoms: O_4  and  C_15 
REMARK    4  A    between atoms: C_8  and  C_12 
ROOT
HETATM    1  O   UNK     0     -46.181  -0.898  16.645  0.00  0.00    -0.309 OA
HETATM    2  O   UNK     0     -49.600   0.729  18.150  0.00  0.00    -0.287 OA
HETATM    3  C   UNK     0     -48.583  -0.585  16.469  0.00  0.00     0.084 A 
HETATM    4  C   UNK     0     -47.377  -1.111  16.010  0.00  0.00     0.096 A 
HETATM    5  C   UNK     0     -46.172  -0.117  17.790  0.00  0.00     0.090 A 
HETATM    6  C   UNK     0     -49.772  -0.836  15.781  0.00  0.00     0.118 A 
HETATM    7  C   UNK     0     -48.579   0.238  17.689  0.00  0.00     0.190 A 
HETATM    8  C   UNK     0     -47.266   0.440  18.335  0.00  0.00     0.094 A 
HETATM    9  C   UNK     0     -47.354  -1.896  14.856  0.00  0.00     0.077 A 
HETATM   10  C   UNK     0     -49.746  -1.620  14.627  0.00  0.00     0.133 A 
HETATM   11  C   UNK     0     -48.540  -2.149  14.166  0.00  0.00     0.104 A 
ENDROOT
BRANCH   5  12
HETATM   12  C   UNK     0     -44.835   0.044  18.397  0.00  0.00    -0.002 A 
HETATM   13  C   UNK     0     -44.063  -1.080  18.702  0.00  0.00     0.014 A 
HETATM   14  C   UNK     0     -42.800  -0.929  19.275  0.00  0.00     0.001 A 
HETATM   15  C   UNK     0     -42.305   0.347  19.544  0.00  0.00     0.000 A 
HETATM   16  C   UNK     0     -43.072   1.472  19.240  0.00  0.00     0.001 A 
HETATM   17  C   UNK     0     -44.336   1.320  18.668  0.00  0.00     0.014 A 
ENDBRANCH   5  12
BRANCH   6  18
HETATM   18  O   UNK     0     -50.970  -0.337  16.200  0.00  0.00    -0.357 OA
HETATM   19  H   UNK     0     -51.529  -1.042  16.562  0.00  0.00     0.217 HD
ENDBRANCH   6  18
BRANCH  11  20
HETATM   20  O   UNK     0     -48.506  -2.916  13.039  0.00  0.00    -0.358 OA
HETATM   21  H   UNK     0     -47.584  -3.187  12.882  0.00  0.00     0.217 HD
ENDBRANCH  11  20
BRANCH  10  22
HETATM   22  O   UNK     0     -50.901  -1.874  13.947  0.00  0.00    -0.356 OA
HETATM   23  H   UNK     0     -51.012  -2.839  13.880  0.00  0.00     0.218 HD
ENDBRANCH  10  22
TORSDOF 4
ENDMDL
MODEL 4
REMARK VINA RESULT:      -6.1      1.483      3.569
REMARK  4 active torsions:
REMARK  status: ('A' for Active; 'I' for Inactive)
REMARK    1  A    between atoms: O_2  and  C_9 
REMARK    2  A    between atoms: O_3  and  C_14 
REMARK    3  A    between atoms: O_4  and  C_15 
REMARK    4  A    between atoms: C_8  and  C_12 
ROOT
HETATM    1  O   UNK     0     -46.438  -0.103  17.497  0.00  0.00    -0.309 OA
HETATM    2  O   UNK     0     -45.470  -2.597  14.425  0.00  0.00    -0.287 OA
HETATM    3  C   UNK     0     -47.159  -1.436  15.600  0.00  0.00     0.084 A 
HETATM    4  C   UNK     0     -47.421  -0.580  16.668  0.00  0.00     0.096 A 
HETATM    5  C   UNK     0     -45.130  -0.499  17.266  0.00  0.00     0.090 A 
HETATM    6  C   UNK     0     -48.200  -1.889  14.786  0.00  0.00     0.118 A 
HETATM    7  C   UNK     0     -45.771  -1.851  15.346  0.00  0.00     0.190 A 
HETATM    8  C   UNK     0     -44.750  -1.313  16.268  0.00  0.00     0.094 A 
HETATM    9  C   UNK     0     -48.729  -0.170  16.928  0.00  0.00     0.077 A 
HETATM   10  C   UNK     0     -49.508  -1.478  15.050  0.00  0.00     0.133 A 
HETATM   11  C   UNK     0     -49.771  -0.621  16.118  0.00  0.00     0.104 A 
ENDROOT
BRANCH   5  12
HETATM   12  C   UNK     0     -44.153   0.076  18.214  0.00  0.00    -0.002 A 
HETATM   13  C   UNK     0     -43.204  -0.745  18.828  0.00  0.00     0.014 A 
HETATM   14  C   UNK     0     -42.281  -0.203  19.723  0.00  0.00     0.001 A 
HETATM   15  C   UNK     0     -42.306   1.163  20.007  0.00  0.00     0.000 A 
HETATM   16  C   UNK     0     -43.252   1.985  19.397  0.00  0.00     0.001 A 
HETATM   17  C   UNK     0     -44.175   1.442  18.502  0.00  0.00     0.014 A 
ENDBRANCH   5  12
BRANCH   6  18
HETATM   18  O   UNK     0     -47.983  -2.728  13.733  0.00  0.00    -0.357 OA
HETATM   19  H   UNK     0     -47.123  -3.169  13.817  0.00  0.00     0.217 HD
ENDBRANCH   6  18
BRANCH  11  20
HETATM   20  O   UNK     0     -51.045  -0.215  16.383  0.00  0.00    -0.358 OA
HETATM   21  H   UNK     0     -51.268   0.510  15.773  0.00  0.00     0.217 HD
ENDBRANCH  11  20
BRANCH  10  22
HETATM   22  O   UNK     0     -50.533  -1.913  14.262  0.00  0.00    -0.356 OA
HETATM   23  H   UNK     0     -51.360  -1.512  14.585  0.00  0.00     0.218 HD
ENDBRANCH  10  22
TORSDOF 4
ENDMDL
MODEL 5
REMARK VINA RESULT:      -6.1      2.345      4.337
REMARK  4 active torsions:
REMARK  status: ('A' for Active; 'I' for Inactive)
REMARK    1  A    between atoms: O_2  and  C_9 
REMARK    2  A    between atoms: O_3  and  C_14 
REMARK    3  A    between atoms: O_4  and  C_15 
REMARK    4  A    between atoms: C_8  and  C_12 
ROOT
HETATM    1  O   UNK     0     -47.380   0.771  18.044  0.00  0.00    -0.309 OA
HETATM    2  O   UNK     0     -43.483  -0.358  18.420  0.00  0.00    -0.287 OA
HETATM    3  C   UNK     0     -45.515  -0.556  17.231  0.00  0.00     0.084 A 
HETATM    4  C   UNK     0     -46.839  -0.127  17.159  0.00  0.00     0.096 A 
HETATM    5  C   UNK     0     -46.574   1.265  19.058  0.00  0.00     0.090 A 
HETATM    6  C   UNK     0     -45.018  -1.472  16.300  0.00  0.00     0.118 A 
HETATM    7  C   UNK     0     -44.654  -0.027  18.300  0.00  0.00     0.190 A 
HETATM    8  C   UNK     0     -45.284   0.934  19.228  0.00  0.00     0.094 A 
HETATM    9  C   UNK     0     -47.676  -0.612  16.153  0.00  0.00     0.077 A 
HETATM   10  C   UNK     0     -45.857  -1.957  15.296  0.00  0.00     0.133 A 
HETATM   11  C   UNK     0     -47.183  -1.527  15.223  0.00  0.00     0.104 A 
ENDROOT
BRANCH   5  12
HETATM   12  C   UNK     0     -47.253   2.227  19.949  0.00  0.00    -0.002 A 
HETATM   13  C   UNK     0     -48.514   2.725  19.613  0.00  0.00     0.014 A 
HETATM   14  C   UNK     0     -49.157   3.634  20.454  0.00  0.00     0.001 A 
HETATM   15  C   UNK     0     -48.539   4.047  21.635  0.00  0.00     0.000 A 
HETATM   16  C   UNK     0     -47.280   3.552  21.974  0.00  0.00     0.001 A 
HETATM   17  C   UNK     0     -46.638   2.644  21.132  0.00  0.00     0.014 A 
ENDBRANCH   5  12
BRANCH   6  18
HETATM   18  O   UNK     0     -43.729  -1.915  16.339  0.00  0.00    -0.357 OA
HETATM   19  H   UNK     0     -43.563  -2.552  15.627  0.00  0.00     0.217 HD
ENDBRANCH   6  18
BRANCH  11  20
HETATM   20  O   UNK     0     -48.010  -1.996  14.246  0.00  0.00    -0.358 OA
HETATM   21  H   UNK     0     -47.804  -2.936  14.096  0.00  0.00     0.217 HD
ENDBRANCH  11  20
BRANCH  10  22
HETATM   22  O   UNK     0     -45.384  -2.850  14.381  0.00  0.00    -0.356 OA
HETATM   23  H   UNK     0     -45.788  -2.650  13.518  0.00  0.00     0.218 HD
ENDBRANCH  10  22
TORSDOF 4
ENDMDL
MODEL 6
REMARK VINA RESULT:      -5.7      1.508      3.420
REMARK  4 active torsions:
REMARK  status: ('A' for Active; 'I' for Inactive)
REMARK    1  A    between atoms: O_2  and  C_9 
REMARK    2  A    between atoms: O_3  and  C_14 
REMARK    3  A    between atoms: O_4  and  C_15 
REMARK    4  A    between atoms: C_8  and  C_12 
ROOT
HETATM    1  O   UNK     0     -45.204   1.752  19.174  0.00  0.00    -0.309 OA
HETATM    2  O   UNK     0     -45.586  -1.444  16.677  0.00  0.00    -0.287 OA
HETATM    3  C   UNK     0     -46.653   0.244  17.940  0.00  0.00     0.084 A 
HETATM    4  C   UNK     0     -46.451   1.329  18.791  0.00  0.00     0.096 A 
HETATM    5  C   UNK     0     -44.098   1.063  18.701  0.00  0.00     0.090 A 
HETATM    6  C   UNK     0     -47.947  -0.142  17.582  0.00  0.00     0.118 A 
HETATM    7  C   UNK     0     -45.482  -0.484  17.428  0.00  0.00     0.190 A 
HETATM    8  C   UNK     0     -44.162   0.008  17.873  0.00  0.00     0.094 A 
HETATM    9  C   UNK     0     -47.545   2.038  19.289  0.00  0.00     0.077 A 
HETATM   10  C   UNK     0     -49.040   0.567  18.082  0.00  0.00     0.133 A 
HETATM   11  C   UNK     0     -48.838   1.655  18.933  0.00  0.00     0.104 A 
ENDROOT
BRANCH   5  12
HETATM   12  C   UNK     0     -42.807   1.605  19.171  0.00  0.00    -0.002 A 
HETATM   13  C   UNK     0     -42.063   0.913  20.129  0.00  0.00     0.014 A 
HETATM   14  C   UNK     0     -40.843   1.425  20.573  0.00  0.00     0.001 A 
HETATM   15  C   UNK     0     -40.365   2.631  20.061  0.00  0.00     0.000 A 
HETATM   16  C   UNK     0     -41.105   3.325  19.104  0.00  0.00     0.001 A 
HETATM   17  C   UNK     0     -42.325   2.813  18.660  0.00  0.00     0.014 A 
ENDBRANCH   5  12
BRANCH   6  18
HETATM   18  O   UNK     0     -48.183  -1.199  16.753  0.00  0.00    -0.357 OA
HETATM   19  H   UNK     0     -47.851  -1.016  15.860  0.00  0.00     0.217 HD
ENDBRANCH   6  18
BRANCH  11  20
HETATM   20  O   UNK     0     -49.900   2.353  19.427  0.00  0.00    -0.358 OA
HETATM   21  H   UNK     0     -49.655   2.706  20.300  0.00  0.00     0.217 HD
ENDBRANCH  11  20
BRANCH  10  22
HETATM   22  O   UNK     0     -50.308   0.201  17.739  0.00  0.00    -0.356 OA
HETATM   23  H   UNK     0     -50.317  -0.025  16.792  0.00  0.00     0.218 HD
ENDBRANCH  10  22
TORSDOF 4
ENDMDL
MODEL 7
REMARK VINA RESULT:      -5.7      3.098      4.486
REMARK  4 active torsions:
REMARK  status: ('A' for Active; 'I' for Inactive)
REMARK    1  A    between atoms: O_2  and  C_9 
REMARK    2  A    between atoms: O_3  and  C_14 
REMARK    3  A    between atoms: O_4  and  C_15 
REMARK    4  A    between atoms: C_8  and  C_12 
ROOT
HETATM    1  O   UNK     0     -48.444   0.349  17.305  0.00  0.00    -0.309 OA
HETATM    2  O   UNK     0     -45.090  -1.771  16.385  0.00  0.00    -0.287 OA
HETATM    3  C   UNK     0     -47.337  -1.261  15.863  0.00  0.00     0.084 A 
HETATM    4  C   UNK     0     -48.448  -0.506  16.233  0.00  0.00     0.096 A 
HETATM    5  C   UNK     0     -47.285   0.459  18.058  0.00  0.00     0.090 A 
HETATM    6  C   UNK     0     -47.398  -2.115  14.760  0.00  0.00     0.118 A 
HETATM    7  C   UNK     0     -46.102  -1.141  16.654  0.00  0.00     0.190 A 
HETATM    8  C   UNK     0     -46.150  -0.210  17.800  0.00  0.00     0.094 A 
HETATM    9  C   UNK     0     -49.631  -0.600  15.498  0.00  0.00     0.077 A 
HETATM   10  C   UNK     0     -48.582  -2.209  14.027  0.00  0.00     0.133 A 
HETATM   11  C   UNK     0     -49.695  -1.452  14.396  0.00  0.00     0.104 A 
ENDROOT
BRANCH   5  12
HETATM   12  C   UNK     0     -47.388   1.409  19.184  0.00  0.00    -0.002 A 
HETATM   13  C   UNK     0     -48.368   2.405  19.174  0.00  0.00     0.014 A 
HETATM   14  C   UNK     0     -48.466   3.303  20.236  0.00  0.00     0.001 A 
HETATM   15  C   UNK     0     -47.584   3.208  21.313  0.00  0.00     0.000 A 
HETATM   16  C   UNK     0     -46.605   2.215  21.327  0.00  0.00     0.001 A 
HETATM   17  C   UNK     0     -46.507   1.318  20.263  0.00  0.00     0.014 A 
ENDBRANCH   5  12
BRANCH   6  18
HETATM   18  O   UNK     0     -46.331  -2.870  14.369  0.00  0.00    -0.357 OA
HETATM   19  H   UNK     0     -45.766  -2.375  13.756  0.00  0.00     0.217 HD
ENDBRANCH   6  18
BRANCH  11  20
HETATM   20  O   UNK     0     -50.856  -1.538  13.686  0.00  0.00    -0.358 OA
HETATM   21  H   UNK     0     -51.572  -1.152  14.222  0.00  0.00     0.217 HD
ENDBRANCH  11  20
BRANCH  10  22
HETATM   22  O   UNK     0     -48.655  -3.038  12.947  0.00  0.00    -0.356 OA
HETATM   23  H   UNK     0     -47.752  -3.318  12.713  0.00  0.00     0.218 HD
ENDBRANCH  10  22
TORSDOF 4
ENDMDL
MODEL 8
REMARK VINA RESULT:      -5.6      3.033      3.978
REMARK  4 active torsions:
REMARK  status: ('A' for Active; 'I' for Inactive)
REMARK    1  A    between atoms: O_2  and  C_9 
REMARK    2  A    between atoms: O_3  and  C_14 
REMARK    3  A    between atoms: O_4  and  C_15 
REMARK    4  A    between atoms: C_8  and  C_12 
ROOT
HETATM    1  O   UNK     0     -46.403   0.840  18.368  0.00  0.00    -0.309 OA
HETATM    2  O   UNK     0     -49.858  -0.706  16.862  0.00  0.00    -0.287 OA
HETATM    3  C   UNK     0     -47.496  -0.676  16.818  0.00  0.00     0.084 A 
HETATM    4  C   UNK     0     -46.353  -0.107  17.377  0.00  0.00     0.096 A 
HETATM    5  C   UNK     0     -47.644   1.253  18.826  0.00  0.00     0.090 A 
HETATM    6  C   UNK     0     -47.385  -1.638  15.810  0.00  0.00     0.118 A 
HETATM    7  C   UNK     0     -48.815  -0.247  17.306  0.00  0.00     0.190 A 
HETATM    8  C   UNK     0     -48.815   0.776  18.371  0.00  0.00     0.094 A 
HETATM    9  C   UNK     0     -45.090  -0.498  16.933  0.00  0.00     0.077 A 
HETATM   10  C   UNK     0     -46.120  -2.027  15.366  0.00  0.00     0.133 A 
HETATM   11  C   UNK     0     -44.976  -1.458  15.927  0.00  0.00     0.104 A 
ENDROOT
BRANCH   5  12
HETATM   12  C   UNK     0     -47.582   2.270  19.895  0.00  0.00    -0.002 A 
HETATM   13  C   UNK     0     -48.521   3.303  19.937  0.00  0.00     0.014 A 
HETATM   14  C   UNK     0     -48.463   4.263  20.947  0.00  0.00     0.001 A 
HETATM   15  C   UNK     0     -47.464   4.193  21.918  0.00  0.00     0.000 A 
HETATM   16  C   UNK     0     -46.524   3.164  21.880  0.00  0.00     0.001 A 
HETATM   17  C   UNK     0     -46.583   2.204  20.869  0.00  0.00     0.014 A 
ENDBRANCH   5  12
BRANCH   6  18
HETATM   18  O   UNK     0     -48.480  -2.215  15.239  0.00  0.00    -0.357 OA
HETATM   19  H   UNK     0     -49.238  -1.611  15.261  0.00  0.00     0.217 HD
ENDBRANCH   6  18
BRANCH  11  20
HETATM   20  O   UNK     0     -43.736  -1.832  15.499  0.00  0.00    -0.358 OA
HETATM   21  H   UNK     0     -43.161  -1.046  15.505  0.00  0.00     0.217 HD
ENDBRANCH  11  20
BRANCH  10  22
HETATM   22  O   UNK     0     -45.999  -2.965  14.385  0.00  0.00    -0.356 OA
HETATM   23  H   UNK     0     -45.051  -3.096  14.200  0.00  0.00     0.218 HD
ENDBRANCH  10  22
TORSDOF 4
ENDMDL
MODEL 9
REMARK VINA RESULT:      -5.5      5.461      8.692
REMARK  4 active torsions:
REMARK  status: ('A' for Active; 'I' for Inactive)
REMARK    1  A    between atoms: O_2  and  C_9 
REMARK    2  A    between atoms: O_3  and  C_14 
REMARK    3  A    between atoms: O_4  and  C_15 
REMARK    4  A    between atoms: C_8  and  C_12 
ROOT
HETATM    1  O   UNK     0     -50.137  -4.583  16.044  0.00  0.00    -0.309 OA
HETATM    2  O   UNK     0     -46.435  -3.500  17.356  0.00  0.00    -0.287 OA
HETATM    3  C   UNK     0     -48.271  -3.032  15.945  0.00  0.00     0.084 A 
HETATM    4  C   UNK     0     -49.535  -3.459  15.541  0.00  0.00     0.096 A 
HETATM    5  C   UNK     0     -49.453  -5.331  16.990  0.00  0.00     0.090 A 
HETATM    6  C   UNK     0     -47.707  -1.877  15.398  0.00  0.00     0.118 A 
HETATM    7  C   UNK     0     -47.546  -3.818  16.955  0.00  0.00     0.190 A 
HETATM    8  C   UNK     0     -48.235  -5.021  17.463  0.00  0.00     0.094 A 
HETATM    9  C   UNK     0     -50.245  -2.730  14.586  0.00  0.00     0.077 A 
HETATM   10  C   UNK     0     -48.419  -1.150  14.442  0.00  0.00     0.133 A 
HETATM   11  C   UNK     0     -49.684  -1.576  14.037  0.00  0.00     0.104 A 
ENDROOT
BRANCH   5  12
HETATM   12  C   UNK     0     -50.194  -6.516  17.468  0.00  0.00    -0.002 A 
HETATM   13  C   UNK     0     -49.532  -7.734  17.643  0.00  0.00     0.014 A 
HETATM   14  C   UNK     0     -50.231  -8.854  18.094  0.00  0.00     0.001 A 
HETATM   15  C   UNK     0     -51.595  -8.758  18.372  0.00  0.00     0.000 A 
HETATM   16  C   UNK     0     -52.259  -7.544  18.199  0.00  0.00     0.001 A 
HETATM   17  C   UNK     0     -51.560  -6.425  17.747  0.00  0.00     0.014 A 
ENDBRANCH   5  12
BRANCH   6  18
HETATM   18  O   UNK     0     -46.473  -1.430  15.767  0.00  0.00    -0.357 OA
HETATM   19  H   UNK     0     -46.531  -0.540  16.151  0.00  0.00     0.217 HD
ENDBRANCH   6  18
BRANCH  11  20
HETATM   20  O   UNK     0     -50.386  -0.872  13.104  0.00  0.00    -0.358 OA
HETATM   21  H   UNK     0     -50.492  -1.433  12.315  0.00  0.00     0.217 HD
ENDBRANCH  11  20
BRANCH  10  22
HETATM   22  O   UNK     0     -47.879  -0.021  13.901  0.00  0.00    -0.356 OA
HETATM   23  H   UNK     0     -47.739   0.626  14.616  0.00  0.00     0.218 HD
ENDBRANCH  10  22
TORSDOF 4
ENDMDL
MODEL 10
REMARK VINA RESULT:      -5.5     15.376     18.855
REMARK  4 active torsions:
REMARK  status: ('A' for Active; 'I' for Inactive)
REMARK    1  A    between atoms: O_2  and  C_9 
REMARK    2  A    between atoms: O_3  and  C_14 
REMARK    3  A    between atoms: O_4  and  C_15 
REMARK    4  A    between atoms: C_8  and  C_12 
ROOT
HETATM    1  O   UNK     0     -57.323  -0.644   5.164  0.00  0.00    -0.309 OA
HETATM    2  O   UNK     0     -59.600  -4.021   5.173  0.00  0.00    -0.287 OA
HETATM    3  C   UNK     0     -58.221  -2.537   6.390  0.00  0.00     0.084 A 
HETATM    4  C   UNK     0     -57.459  -1.373   6.317  0.00  0.00     0.096 A 
HETATM    5  C   UNK     0     -57.966  -1.090   4.020  0.00  0.00     0.090 A 
HETATM    6  C   UNK     0     -58.325  -3.240   7.592  0.00  0.00     0.118 A 
HETATM    7  C   UNK     0     -58.913  -3.010   5.180  0.00  0.00     0.190 A 
HETATM    8  C   UNK     0     -58.733  -2.191   3.964  0.00  0.00     0.094 A 
HETATM    9  C   UNK     0     -56.794  -0.903   7.450  0.00  0.00     0.077 A 
HETATM   10  C   UNK     0     -57.659  -2.768   8.725  0.00  0.00     0.133 A 
HETATM   11  C   UNK     0     -56.896  -1.602   8.653  0.00  0.00     0.104 A 
ENDROOT
BRANCH   5  12
HETATM   12  C   UNK     0     -57.757  -0.229   2.838  0.00  0.00    -0.002 A 
HETATM   13  C   UNK     0     -57.844  -0.767   1.552  0.00  0.00     0.014 A 
HETATM   14  C   UNK     0     -57.647   0.046   0.436  0.00  0.00     0.001 A 
HETATM   15  C   UNK     0     -57.361   1.401   0.604  0.00  0.00     0.000 A 
HETATM   16  C   UNK     0     -57.274   1.943   1.885  0.00  0.00     0.001 A 
HETATM   17  C   UNK     0     -57.471   1.129   3.001  0.00  0.00     0.014 A 
ENDBRANCH   5  12
BRANCH   6  18
HETATM   18  O   UNK     0     -59.061  -4.383   7.702  0.00  0.00    -0.357 OA
HETATM   19  H   UNK     0     -58.529  -5.158   7.461  0.00  0.00     0.217 HD
ENDBRANCH   6  18
BRANCH  11  20
HETATM   20  O   UNK     0     -56.241  -1.134   9.754  0.00  0.00    -0.358 OA
HETATM   21  H   UNK     0     -56.905  -0.829  10.397  0.00  0.00     0.217 HD
ENDBRANCH  11  20
BRANCH  10  22
HETATM   22  O   UNK     0     -57.753  -3.444   9.905  0.00  0.00    -0.356 OA
HETATM   23  H   UNK     0     -57.350  -4.323   9.789  0.00  0.00     0.218 HD
ENDBRANCH  10  22
TORSDOF 4
ENDMDL
