MODEL 1
REMARK VINA RESULT:      -6.3      0.000      0.000
REMARK  16 active torsions:
REMARK  status: ('A' for Active; 'I' for Inactive)
REMARK    1  A    between atoms: N_3  and  C_13 
REMARK    2  A    between atoms: C_6  and  C_37 
REMARK    3  A    between atoms: C_13  and  C_14 
REMARK    4  A    between atoms: C_13  and  C_17 
REMARK       I    between atoms: C_14  and  N_15 
REMARK    5  A    between atoms: N_15  and  C_16 
REMARK    6  A    between atoms: C_16  and  C_27 
REMARK    7  A    between atoms: C_16  and  C_28 
REMARK    8  A    between atoms: C_25  and  C_27 
REMARK    9  A    between atoms: C_28  and  C_29 
REMARK   10  A    between atoms: C_29  and  C_30 
REMARK   11  A    between atoms: C_29  and  O_36 
REMARK   12  A    between atoms: C_30  and  N_31 
REMARK   13  A    between atoms: C_30  and  C_37 
REMARK       I    between atoms: N_31  and  C_32 
REMARK   14  A    between atoms: C_32  and  C_33 
REMARK   15  A    between atoms: C_33  and  O_34 
REMARK   16  A    between atoms: O_34  and  C_35 
ROOT
HETATM    1  C   UNK     0     -47.082   2.136  22.222  0.00  0.00     0.126 C 
HETATM    2  C   UNK     0     -48.939   1.300  20.756  0.00  0.00     0.130 C 
HETATM    3  N   UNK     0     -48.076   0.110  20.413  0.00  0.00    -0.320 N 
HETATM    4  C   UNK     0     -46.804  -0.037  20.949  0.00  0.00     0.319 C 
HETATM    5  N   UNK     0     -46.349   0.926  21.801  0.00  0.00    -0.343 N 
HETATM    6  O   UNK     0     -46.093  -0.990  20.679  0.00  0.00    -0.247 OA
HETATM    7  C   UNK     0     -48.600   1.950  22.114  0.00  0.00     0.040 C 
HETATM    8  H   UNK     0     -45.409   0.728  22.144  0.00  0.00     0.164 HD
ENDROOT
BRANCH   3   9
HETATM    9  C   UNK     0     -48.592  -0.941  19.468  0.00  0.00     0.184 C 
BRANCH   9  10
HETATM   10  C   UNK     0     -48.304  -0.500  18.007  0.00  0.00     0.241 C 
HETATM   11  N   UNK     0     -47.251  -1.174  17.449  0.00  0.00    -0.354 N 
HETATM   12  H   UNK     0     -46.825  -1.853  18.079  0.00  0.00     0.162 HD
HETATM   13  O   UNK     0     -48.975   0.369  17.448  0.00  0.00    -0.271 OA
BRANCH  11  14
HETATM   14  C   UNK     0     -46.750  -0.966  16.072  0.00  0.00     0.091 C 
BRANCH  14  15
HETATM   15  C   UNK     0     -45.219  -1.171  16.010  0.00  0.00     0.063 C 
BRANCH  15  16
HETATM   16  C   UNK     0     -44.418  -0.852  17.240  0.00  0.00    -0.056 A 
HETATM   17  C   UNK     0     -44.352   0.482  17.727  0.00  0.00     0.007 A 
HETATM   18  C   UNK     0     -43.602   0.794  18.883  0.00  0.00     0.001 A 
HETATM   19  C   UNK     0     -42.908  -0.230  19.569  0.00  0.00     0.000 A 
HETATM   20  C   UNK     0     -42.969  -1.561  19.091  0.00  0.00     0.001 A 
HETATM   21  C   UNK     0     -43.721  -1.869  17.932  0.00  0.00     0.007 A 
ENDBRANCH  15  16
ENDBRANCH  14  15
BRANCH  14  22
HETATM   22  C   UNK     0     -47.364  -1.985  15.087  0.00  0.00     0.059 C 
BRANCH  22  23
HETATM   23  C   UNK     0     -48.551  -1.573  14.198  0.00  0.00     0.143 C 
BRANCH  23  24
HETATM   24  C   UNK     0     -49.938  -1.458  14.881  0.00  0.00     0.117 C 
BRANCH  24  25
HETATM   25  N   UNK     0     -50.452  -0.087  14.660  0.00  0.00    -0.352 N 
HETATM   26  C   UNK     0     -51.545   0.436  15.300  0.00  0.00     0.242 C 
HETATM   27  O   UNK     0     -52.229  -0.162  16.138  0.00  0.00    -0.271 OA
HETATM   28  H   UNK     0     -50.011   0.558  14.004  0.00  0.00     0.163 HD
BRANCH  26  29
HETATM   29  C   UNK     0     -51.902   1.877  14.884  0.00  0.00     0.278 C 
BRANCH  29  30
HETATM   30  O   UNK     0     -52.309   1.951  13.505  0.00  0.00    -0.341 OA
BRANCH  30  31
HETATM   31  C   UNK     0     -52.089   3.209  12.910  0.00  0.00     0.081 A 
HETATM   32  C   UNK     0     -53.048   4.276  13.020  0.00  0.00    -0.028 A 
HETATM   33  C   UNK     0     -52.769   5.523  12.400  0.00  0.00     0.009 A 
HETATM   34  C   UNK     0     -54.348   4.121  13.774  0.00  0.00     0.051 C 
HETATM   35  C   UNK     0     -51.569   5.724  11.685  0.00  0.00     0.001 A 
HETATM   36  C   UNK     0     -50.622   4.686  11.575  0.00  0.00     0.009 A 
HETATM   37  C   UNK     0     -50.867   3.430  12.180  0.00  0.00    -0.028 A 
HETATM   38  C   UNK     0     -49.843   2.354  12.046  0.00  0.00     0.051 C 
ENDBRANCH  30  31
ENDBRANCH  29  30
ENDBRANCH  26  29
ENDBRANCH  24  25
BRANCH  24  39
HETATM   39  C   UNK     0     -50.942  -2.477  14.266  0.00  0.00     0.066 C 
BRANCH  39  40
HETATM   40  C   UNK     0     -51.297  -3.642  15.169  0.00  0.00    -0.056 A 
HETATM   41  C   UNK     0     -50.277  -4.499  15.650  0.00  0.00     0.007 A 
HETATM   42  C   UNK     0     -50.585  -5.597  16.491  0.00  0.00     0.001 A 
HETATM   43  C   UNK     0     -51.919  -5.849  16.861  0.00  0.00     0.000 A 
HETATM   44  C   UNK     0     -52.945  -5.001  16.388  0.00  0.00     0.001 A 
HETATM   45  C   UNK     0     -52.638  -3.905  15.548  0.00  0.00     0.007 A 
ENDBRANCH  39  40
ENDBRANCH  24  39
ENDBRANCH  23  24
BRANCH  23  46
HETATM   46  O   UNK     0     -48.230  -0.299  13.694  0.00  0.00    -0.393 OA
HETATM   47  H   UNK     0     -47.432  -0.413  13.189  0.00  0.00     0.210 HD
ENDBRANCH  23  46
ENDBRANCH  22  23
ENDBRANCH  14  22
ENDBRANCH  11  14
ENDBRANCH   9  10
BRANCH   9  48
HETATM   48  C   UNK     0     -50.122  -1.252  19.709  0.00  0.00     0.010 C 
HETATM   49  C   UNK     0     -50.727  -2.206  18.661  0.00  0.00     0.012 C 
HETATM   50  C   UNK     0     -50.346  -1.861  21.112  0.00  0.00     0.012 C 
ENDBRANCH   9  48
ENDBRANCH   3   9
TORSDOF 16
ENDMDL
MODEL 2
REMARK VINA RESULT:      -6.2      0.547      1.390
REMARK  16 active torsions:
REMARK  status: ('A' for Active; 'I' for Inactive)
REMARK    1  A    between atoms: N_3  and  C_13 
REMARK    2  A    between atoms: C_6  and  C_37 
REMARK    3  A    between atoms: C_13  and  C_14 
REMARK    4  A    between atoms: C_13  and  C_17 
REMARK       I    between atoms: C_14  and  N_15 
REMARK    5  A    between atoms: N_15  and  C_16 
REMARK    6  A    between atoms: C_16  and  C_27 
REMARK    7  A    between atoms: C_16  and  C_28 
REMARK    8  A    between atoms: C_25  and  C_27 
REMARK    9  A    between atoms: C_28  and  C_29 
REMARK   10  A    between atoms: C_29  and  C_30 
REMARK   11  A    between atoms: C_29  and  O_36 
REMARK   12  A    between atoms: C_30  and  N_31 
REMARK   13  A    between atoms: C_30  and  C_37 
REMARK       I    between atoms: N_31  and  C_32 
REMARK   14  A    between atoms: C_32  and  C_33 
REMARK   15  A    between atoms: C_33  and  O_34 
REMARK   16  A    between atoms: O_34  and  C_35 
ROOT
HETATM    1  C   UNK     0     -47.126   2.261  22.089  0.00  0.00     0.126 C 
HETATM    2  C   UNK     0     -48.886   1.370  20.537  0.00  0.00     0.130 C 
HETATM    3  N   UNK     0     -48.033   0.139  20.345  0.00  0.00    -0.320 N 
HETATM    4  C   UNK     0     -46.812  -0.000  20.990  0.00  0.00     0.319 C 
HETATM    5  N   UNK     0     -46.398   1.008  21.810  0.00  0.00    -0.343 N 
HETATM    6  O   UNK     0     -46.110  -0.986  20.843  0.00  0.00    -0.247 OA
HETATM    7  C   UNK     0     -48.636   2.103  21.872  0.00  0.00     0.040 C 
HETATM    8  H   UNK     0     -45.494   0.812  22.240  0.00  0.00     0.164 HD
ENDROOT
BRANCH   3   9
HETATM    9  C   UNK     0     -48.503  -0.962  19.434  0.00  0.00     0.184 C 
BRANCH   9  10
HETATM   10  C   UNK     0     -48.237  -0.554  17.959  0.00  0.00     0.241 C 
HETATM   11  N   UNK     0     -47.070  -1.075  17.469  0.00  0.00    -0.354 N 
HETATM   12  H   UNK     0     -46.564  -1.644  18.147  0.00  0.00     0.162 HD
HETATM   13  O   UNK     0     -49.018   0.167  17.335  0.00  0.00    -0.271 OA
BRANCH  11  14
HETATM   14  C   UNK     0     -46.559  -0.858  16.097  0.00  0.00     0.091 C 
BRANCH  14  15
HETATM   15  C   UNK     0     -45.016  -0.942  16.068  0.00  0.00     0.063 C 
BRANCH  15  16
HETATM   16  C   UNK     0     -44.278  -0.756  17.363  0.00  0.00    -0.056 A 
HETATM   17  C   UNK     0     -44.160   0.538  17.941  0.00  0.00     0.007 A 
HETATM   18  C   UNK     0     -43.469   0.725  19.159  0.00  0.00     0.001 A 
HETATM   19  C   UNK     0     -42.888  -0.384  19.816  0.00  0.00     0.000 A 
HETATM   20  C   UNK     0     -43.002  -1.676  19.249  0.00  0.00     0.001 A 
HETATM   21  C   UNK     0     -43.694  -1.859  18.028  0.00  0.00     0.007 A 
ENDBRANCH  15  16
ENDBRANCH  14  15
BRANCH  14  22
HETATM   22  C   UNK     0     -47.070  -1.944  15.125  0.00  0.00     0.059 C 
BRANCH  22  23
HETATM   23  C   UNK     0     -48.250  -1.637  14.184  0.00  0.00     0.143 C 
BRANCH  23  24
HETATM   24  C   UNK     0     -49.678  -1.814  14.761  0.00  0.00     0.117 C 
BRANCH  24  25
HETATM   25  N   UNK     0     -50.492  -0.647  14.351  0.00  0.00    -0.352 N 
HETATM   26  C   UNK     0     -51.622  -0.230  15.006  0.00  0.00     0.242 C 
HETATM   27  O   UNK     0     -52.096  -0.768  16.013  0.00  0.00    -0.271 OA
HETATM   28  H   UNK     0     -50.251  -0.075  13.541  0.00  0.00     0.163 HD
BRANCH  26  29
HETATM   29  C   UNK     0     -52.313   0.994  14.374  0.00  0.00     0.278 C 
BRANCH  29  30
HETATM   30  O   UNK     0     -51.535   2.194  14.542  0.00  0.00    -0.341 OA
BRANCH  30  31
HETATM   31  C   UNK     0     -51.743   3.156  13.535  0.00  0.00     0.081 A 
HETATM   32  C   UNK     0     -50.917   3.213  12.359  0.00  0.00    -0.028 A 
HETATM   33  C   UNK     0     -51.179   4.207  11.377  0.00  0.00     0.009 A 
HETATM   34  C   UNK     0     -49.776   2.251  12.125  0.00  0.00     0.051 C 
HETATM   35  C   UNK     0     -52.234   5.129  11.543  0.00  0.00     0.001 A 
HETATM   36  C   UNK     0     -53.051   5.079  12.690  0.00  0.00     0.009 A 
HETATM   37  C   UNK     0     -52.819   4.103  13.689  0.00  0.00    -0.028 A 
HETATM   38  C   UNK     0     -53.703   4.078  14.889  0.00  0.00     0.051 C 
ENDBRANCH  30  31
ENDBRANCH  29  30
ENDBRANCH  26  29
ENDBRANCH  24  25
BRANCH  24  39
HETATM   39  C   UNK     0     -50.340  -3.109  14.205  0.00  0.00     0.066 C 
BRANCH  39  40
HETATM   40  C   UNK     0     -50.745  -4.118  15.263  0.00  0.00    -0.056 A 
HETATM   41  C   UNK     0     -49.751  -4.848  15.959  0.00  0.00     0.007 A 
HETATM   42  C   UNK     0     -50.105  -5.799  16.948  0.00  0.00     0.001 A 
HETATM   43  C   UNK     0     -51.461  -6.029  17.251  0.00  0.00     0.000 A 
HETATM   44  C   UNK     0     -52.460  -5.307  16.563  0.00  0.00     0.001 A 
HETATM   45  C   UNK     0     -52.107  -4.358  15.576  0.00  0.00     0.007 A 
ENDBRANCH  39  40
ENDBRANCH  24  39
ENDBRANCH  23  24
BRANCH  23  46
HETATM   46  O   UNK     0     -48.112  -0.283  13.824  0.00  0.00    -0.393 OA
HETATM   47  H   UNK     0     -48.437   0.217  14.565  0.00  0.00     0.210 HD
ENDBRANCH  23  46
ENDBRANCH  22  23
ENDBRANCH  14  22
ENDBRANCH  11  14
ENDBRANCH   9  10
BRANCH   9  48
HETATM   48  C   UNK     0     -50.018  -1.332  19.688  0.00  0.00     0.010 C 
HETATM   49  C   UNK     0     -50.545  -2.437  18.752  0.00  0.00     0.012 C 
HETATM   50  C   UNK     0     -50.236  -1.785  21.151  0.00  0.00     0.012 C 
ENDBRANCH   9  48
ENDBRANCH   3   9
TORSDOF 16
ENDMDL
MODEL 3
REMARK VINA RESULT:      -5.9      3.065      8.737
REMARK  16 active torsions:
REMARK  status: ('A' for Active; 'I' for Inactive)
REMARK    1  A    between atoms: N_3  and  C_13 
REMARK    2  A    between atoms: C_6  and  C_37 
REMARK    3  A    between atoms: C_13  and  C_14 
REMARK    4  A    between atoms: C_13  and  C_17 
REMARK       I    between atoms: C_14  and  N_15 
REMARK    5  A    between atoms: N_15  and  C_16 
REMARK    6  A    between atoms: C_16  and  C_27 
REMARK    7  A    between atoms: C_16  and  C_28 
REMARK    8  A    between atoms: C_25  and  C_27 
REMARK    9  A    between atoms: C_28  and  C_29 
REMARK   10  A    between atoms: C_29  and  C_30 
REMARK   11  A    between atoms: C_29  and  O_36 
REMARK   12  A    between atoms: C_30  and  N_31 
REMARK   13  A    between atoms: C_30  and  C_37 
REMARK       I    between atoms: N_31  and  C_32 
REMARK   14  A    between atoms: C_32  and  C_33 
REMARK   15  A    between atoms: C_33  and  O_34 
REMARK   16  A    between atoms: O_34  and  C_35 
ROOT
HETATM    1  C   UNK     0     -52.353   2.167  16.965  0.00  0.00     0.126 C 
HETATM    2  C   UNK     0     -51.448  -0.013  17.814  0.00  0.00     0.130 C 
HETATM    3  N   UNK     0     -50.389   0.764  18.558  0.00  0.00    -0.320 N 
HETATM    4  C   UNK     0     -50.333   2.149  18.494  0.00  0.00     0.319 C 
HETATM    5  N   UNK     0     -51.266   2.798  17.741  0.00  0.00    -0.343 N 
HETATM    6  O   UNK     0     -49.482   2.791  19.085  0.00  0.00    -0.247 OA
HETATM    7  C   UNK     0     -52.732   0.793  17.529  0.00  0.00     0.040 C 
HETATM    8  H   UNK     0     -51.145   3.810  17.759  0.00  0.00     0.164 HD
ENDROOT
BRANCH   3   9
HETATM    9  C   UNK     0     -49.364   0.033  19.382  0.00  0.00     0.184 C 
BRANCH   9  10
HETATM   10  C   UNK     0     -48.545  -0.910  18.459  0.00  0.00     0.241 C 
HETATM   11  N   UNK     0     -47.570  -0.249  17.760  0.00  0.00    -0.354 N 
HETATM   12  H   UNK     0     -47.540   0.751  17.954  0.00  0.00     0.162 HD
HETATM   13  O   UNK     0     -48.780  -2.118  18.392  0.00  0.00    -0.271 OA
BRANCH  11  14
HETATM   14  C   UNK     0     -46.635  -0.888  16.808  0.00  0.00     0.091 C 
BRANCH  14  15
HETATM   15  C   UNK     0     -47.078  -0.629  15.349  0.00  0.00     0.063 C 
BRANCH  15  16
HETATM   16  C   UNK     0     -48.408  -1.174  14.912  0.00  0.00    -0.056 A 
HETATM   17  C   UNK     0     -49.490  -0.292  14.645  0.00  0.00     0.007 A 
HETATM   18  C   UNK     0     -50.747  -0.792  14.234  0.00  0.00     0.001 A 
HETATM   19  C   UNK     0     -50.934  -2.186  14.084  0.00  0.00     0.000 A 
HETATM   20  C   UNK     0     -49.861  -3.071  14.347  0.00  0.00     0.001 A 
HETATM   21  C   UNK     0     -48.605  -2.566  14.759  0.00  0.00     0.007 A 
ENDBRANCH  15  16
ENDBRANCH  14  15
BRANCH  14  22
HETATM   22  C   UNK     0     -45.210  -0.306  16.938  0.00  0.00     0.059 C 
BRANCH  22  23
HETATM   23  C   UNK     0     -44.331  -0.693  18.141  0.00  0.00     0.143 C 
BRANCH  23  24
HETATM   24  C   UNK     0     -43.872   0.454  19.077  0.00  0.00     0.117 C 
BRANCH  24  25
HETATM   25  N   UNK     0     -44.804   0.515  20.227  0.00  0.00    -0.352 N 
HETATM   26  C   UNK     0     -45.903   1.332  20.283  0.00  0.00     0.242 C 
HETATM   27  O   UNK     0     -46.254   2.109  19.389  0.00  0.00    -0.271 OA
HETATM   28  H   UNK     0     -44.676  -0.062  21.059  0.00  0.00     0.163 HD
BRANCH  26  29
HETATM   29  C   UNK     0     -46.705   1.236  21.596  0.00  0.00     0.278 C 
BRANCH  29  30
HETATM   30  O   UNK     0     -45.966   1.758  22.715  0.00  0.00    -0.341 OA
BRANCH  30  31
HETATM   31  C   UNK     0     -45.958   3.164  22.791  0.00  0.00     0.081 A 
HETATM   32  C   UNK     0     -47.176   3.925  22.870  0.00  0.00    -0.028 A 
HETATM   33  C   UNK     0     -47.102   5.342  22.946  0.00  0.00     0.009 A 
HETATM   34  C   UNK     0     -48.538   3.273  22.876  0.00  0.00     0.051 C 
HETATM   35  C   UNK     0     -45.856   6.004  22.946  0.00  0.00     0.001 A 
HETATM   36  C   UNK     0     -44.657   5.267  22.872  0.00  0.00     0.009 A 
HETATM   37  C   UNK     0     -44.692   3.853  22.795  0.00  0.00    -0.028 A 
HETATM   38  C   UNK     0     -43.405   3.104  22.720  0.00  0.00     0.051 C 
ENDBRANCH  30  31
ENDBRANCH  29  30
ENDBRANCH  26  29
ENDBRANCH  24  25
BRANCH  24  39
HETATM   39  C   UNK     0     -42.433   0.189  19.610  0.00  0.00     0.066 C 
BRANCH  39  40
HETATM   40  C   UNK     0     -41.640   1.439  19.939  0.00  0.00    -0.056 A 
HETATM   41  C   UNK     0     -40.664   1.406  20.965  0.00  0.00     0.007 A 
HETATM   42  C   UNK     0     -39.914   2.563  21.294  0.00  0.00     0.001 A 
HETATM   43  C   UNK     0     -40.133   3.766  20.598  0.00  0.00     0.000 A 
HETATM   44  C   UNK     0     -41.103   3.811  19.572  0.00  0.00     0.001 A 
HETATM   45  C   UNK     0     -41.852   2.657  19.244  0.00  0.00     0.007 A 
ENDBRANCH  39  40
ENDBRANCH  24  39
ENDBRANCH  23  24
BRANCH  23  46
HETATM   46  O   UNK     0     -45.106  -1.577  18.915  0.00  0.00    -0.393 OA
HETATM   47  H   UNK     0     -45.155  -1.189  19.781  0.00  0.00     0.210 HD
ENDBRANCH  23  46
ENDBRANCH  22  23
ENDBRANCH  14  22
ENDBRANCH  11  14
ENDBRANCH   9  10
BRANCH   9  48
HETATM   48  C   UNK     0     -50.022  -0.739  20.593  0.00  0.00     0.010 C 
HETATM   49  C   UNK     0     -48.999  -1.460  21.491  0.00  0.00     0.012 C 
HETATM   50  C   UNK     0     -50.852   0.224  21.474  0.00  0.00     0.012 C 
ENDBRANCH   9  48
ENDBRANCH   3   9
TORSDOF 16
ENDMDL
MODEL 4
REMARK VINA RESULT:      -5.8      3.024      5.638
REMARK  16 active torsions:
REMARK  status: ('A' for Active; 'I' for Inactive)
REMARK    1  A    between atoms: N_3  and  C_13 
REMARK    2  A    between atoms: C_6  and  C_37 
REMARK    3  A    between atoms: C_13  and  C_14 
REMARK    4  A    between atoms: C_13  and  C_17 
REMARK       I    between atoms: C_14  and  N_15 
REMARK    5  A    between atoms: N_15  and  C_16 
REMARK    6  A    between atoms: C_16  and  C_27 
REMARK    7  A    between atoms: C_16  and  C_28 
REMARK    8  A    between atoms: C_25  and  C_27 
REMARK    9  A    between atoms: C_28  and  C_29 
REMARK   10  A    between atoms: C_29  and  C_30 
REMARK   11  A    between atoms: C_29  and  O_36 
REMARK   12  A    between atoms: C_30  and  N_31 
REMARK   13  A    between atoms: C_30  and  C_37 
REMARK       I    between atoms: N_31  and  C_32 
REMARK   14  A    between atoms: C_32  and  C_33 
REMARK   15  A    between atoms: C_33  and  O_34 
REMARK   16  A    between atoms: O_34  and  C_35 
ROOT
HETATM    1  C   UNK     0     -46.510   2.040  22.678  0.00  0.00     0.126 C 
HETATM    2  C   UNK     0     -48.378   1.380  21.139  0.00  0.00     0.130 C 
HETATM    3  N   UNK     0     -47.623   0.108  20.836  0.00  0.00    -0.320 N 
HETATM    4  C   UNK     0     -46.394  -0.159  21.424  0.00  0.00     0.319 C 
HETATM    5  N   UNK     0     -45.883   0.760  22.292  0.00  0.00    -0.343 N 
HETATM    6  O   UNK     0     -45.771  -1.179  21.187  0.00  0.00    -0.247 OA
HETATM    7  C   UNK     0     -48.033   2.003  22.508  0.00  0.00     0.040 C 
HETATM    8  H   UNK     0     -44.981   0.474  22.674  0.00  0.00     0.164 HD
ENDROOT
BRANCH   3   9
HETATM    9  C   UNK     0     -48.200  -0.894  19.873  0.00  0.00     0.184 C 
BRANCH   9  10
HETATM   10  C   UNK     0     -48.054  -0.353  18.424  0.00  0.00     0.241 C 
HETATM   11  N   UNK     0     -47.107  -1.028  17.701  0.00  0.00    -0.354 N 
HETATM   12  H   UNK     0     -46.650  -1.773  18.228  0.00  0.00     0.162 HD
HETATM   13  O   UNK     0     -48.736   0.586  18.010  0.00  0.00    -0.271 OA
BRANCH  11  14
HETATM   14  C   UNK     0     -46.752  -0.737  16.295  0.00  0.00     0.091 C 
BRANCH  14  15
HETATM   15  C   UNK     0     -45.221  -0.588  16.135  0.00  0.00     0.063 C 
BRANCH  15  16
HETATM   16  C   UNK     0     -44.386  -0.556  17.384  0.00  0.00    -0.056 A 
HETATM   17  C   UNK     0     -44.206   0.662  18.094  0.00  0.00     0.007 A 
HETATM   18  C   UNK     0     -43.422   0.705  19.269  0.00  0.00     0.001 A 
HETATM   19  C   UNK     0     -42.809  -0.476  19.750  0.00  0.00     0.000 A 
HETATM   20  C   UNK     0     -42.985  -1.693  19.049  0.00  0.00     0.001 A 
HETATM   21  C   UNK     0     -43.770  -1.731  17.872  0.00  0.00     0.007 A 
ENDBRANCH  15  16
ENDBRANCH  14  15
BRANCH  14  22
HETATM   22  C   UNK     0     -47.176  -1.886  15.354  0.00  0.00     0.059 C 
BRANCH  22  23
HETATM   23  C   UNK     0     -48.381  -1.702  14.414  0.00  0.00     0.143 C 
BRANCH  23  24
HETATM   24  C   UNK     0     -49.743  -2.268  14.893  0.00  0.00     0.117 C 
BRANCH  24  25
HETATM   25  N   UNK     0     -49.477  -3.343  15.877  0.00  0.00    -0.352 N 
HETATM   26  C   UNK     0     -49.885  -4.643  15.724  0.00  0.00     0.242 C 
HETATM   27  O   UNK     0     -50.515  -5.079  14.754  0.00  0.00    -0.271 OA
HETATM   28  H   UNK     0     -48.964  -3.172  16.742  0.00  0.00     0.163 HD
BRANCH  26  29
HETATM   29  C   UNK     0     -49.513  -5.572  16.896  0.00  0.00     0.278 C 
BRANCH  29  30
HETATM   30  O   UNK     0     -50.643  -6.338  17.354  0.00  0.00    -0.341 OA
BRANCH  30  31
HETATM   31  C   UNK     0     -51.335  -5.749  18.430  0.00  0.00     0.081 A 
HETATM   32  C   UNK     0     -52.593  -5.077  18.244  0.00  0.00    -0.028 A 
HETATM   33  C   UNK     0     -53.244  -4.504  19.369  0.00  0.00     0.009 A 
HETATM   34  C   UNK     0     -53.253  -4.957  16.890  0.00  0.00     0.051 C 
HETATM   35  C   UNK     0     -52.674  -4.589  20.657  0.00  0.00     0.001 A 
HETATM   36  C   UNK     0     -51.443  -5.248  20.850  0.00  0.00     0.009 A 
HETATM   37  C   UNK     0     -50.766  -5.830  19.751  0.00  0.00    -0.028 A 
HETATM   38  C   UNK     0     -49.467  -6.521  19.991  0.00  0.00     0.051 C 
ENDBRANCH  30  31
ENDBRANCH  29  30
ENDBRANCH  26  29
ENDBRANCH  24  25
BRANCH  24  39
HETATM   39  C   UNK     0     -50.593  -1.158  15.578  0.00  0.00     0.066 C 
BRANCH  39  40
HETATM   40  C   UNK     0     -52.088  -1.412  15.576  0.00  0.00    -0.056 A 
HETATM   41  C   UNK     0     -52.859  -1.099  16.722  0.00  0.00     0.007 A 
HETATM   42  C   UNK     0     -54.256  -1.333  16.745  0.00  0.00     0.001 A 
HETATM   43  C   UNK     0     -54.897  -1.882  15.619  0.00  0.00     0.000 A 
HETATM   44  C   UNK     0     -54.139  -2.197  14.470  0.00  0.00     0.001 A 
HETATM   45  C   UNK     0     -52.744  -1.965  14.447  0.00  0.00     0.007 A 
ENDBRANCH  39  40
ENDBRANCH  24  39
ENDBRANCH  23  24
BRANCH  23  46
HETATM   46  O   UNK     0     -48.540  -0.312  14.260  0.00  0.00    -0.393 OA
HETATM   47  H   UNK     0     -47.717   0.006  13.908  0.00  0.00     0.210 HD
ENDBRANCH  23  46
ENDBRANCH  22  23
ENDBRANCH  14  22
ENDBRANCH  11  14
ENDBRANCH   9  10
BRANCH   9  48
HETATM   48  C   UNK     0     -49.696  -1.259  20.227  0.00  0.00     0.010 C 
HETATM   49  C   UNK     0     -50.382  -2.137  19.163  0.00  0.00     0.012 C 
HETATM   50  C   UNK     0     -49.777  -1.987  21.589  0.00  0.00     0.012 C 
ENDBRANCH   9  48
ENDBRANCH   3   9
TORSDOF 16
ENDMDL
MODEL 5
REMARK VINA RESULT:      -5.8      3.328      8.509
REMARK  16 active torsions:
REMARK  status: ('A' for Active; 'I' for Inactive)
REMARK    1  A    between atoms: N_3  and  C_13 
REMARK    2  A    between atoms: C_6  and  C_37 
REMARK    3  A    between atoms: C_13  and  C_14 
REMARK    4  A    between atoms: C_13  and  C_17 
REMARK       I    between atoms: C_14  and  N_15 
REMARK    5  A    between atoms: N_15  and  C_16 
REMARK    6  A    between atoms: C_16  and  C_27 
REMARK    7  A    between atoms: C_16  and  C_28 
REMARK    8  A    between atoms: C_25  and  C_27 
REMARK    9  A    between atoms: C_28  and  C_29 
REMARK   10  A    between atoms: C_29  and  C_30 
REMARK   11  A    between atoms: C_29  and  O_36 
REMARK   12  A    between atoms: C_30  and  N_31 
REMARK   13  A    between atoms: C_30  and  C_37 
REMARK       I    between atoms: N_31  and  C_32 
REMARK   14  A    between atoms: C_32  and  C_33 
REMARK   15  A    between atoms: C_33  and  O_34 
REMARK   16  A    between atoms: O_34  and  C_35 
ROOT
HETATM    1  C   UNK     0     -48.553  -6.961  20.902  0.00  0.00     0.126 C 
HETATM    2  C   UNK     0     -49.742  -5.245  19.510  0.00  0.00     0.130 C 
HETATM    3  N   UNK     0     -49.172  -5.909  18.280  0.00  0.00    -0.320 N 
HETATM    4  C   UNK     0     -48.348  -7.022  18.377  0.00  0.00     0.319 C 
HETATM    5  N   UNK     0     -48.067  -7.508  19.620  0.00  0.00    -0.343 N 
HETATM    6  O   UNK     0     -47.877  -7.567  17.394  0.00  0.00    -0.247 OA
HETATM    7  C   UNK     0     -49.863  -6.183  20.729  0.00  0.00     0.040 C 
HETATM    8  H   UNK     0     -47.458  -8.326  19.588  0.00  0.00     0.164 HD
ENDROOT
BRANCH   3   9
HETATM    9  C   UNK     0     -49.490  -5.358  16.916  0.00  0.00     0.184 C 
BRANCH   9  10
HETATM   10  C   UNK     0     -48.684  -4.048  16.694  0.00  0.00     0.241 C 
HETATM   11  N   UNK     0     -48.769  -3.588  15.407  0.00  0.00    -0.354 N 
HETATM   12  H   UNK     0     -49.343  -4.176  14.803  0.00  0.00     0.162 HD
HETATM   13  O   UNK     0     -48.049  -3.515  17.605  0.00  0.00    -0.271 OA
BRANCH  11  14
HETATM   14  C   UNK     0     -48.109  -2.363  14.904  0.00  0.00     0.091 C 
BRANCH  14  15
HETATM   15  C   UNK     0     -48.921  -1.105  15.290  0.00  0.00     0.063 C 
BRANCH  15  16
HETATM   16  C   UNK     0     -50.402  -1.260  15.489  0.00  0.00    -0.056 A 
HETATM   17  C   UNK     0     -51.255  -1.488  14.374  0.00  0.00     0.007 A 
HETATM   18  C   UNK     0     -52.649  -1.636  14.549  0.00  0.00     0.001 A 
HETATM   19  C   UNK     0     -53.208  -1.559  15.846  0.00  0.00     0.000 A 
HETATM   20  C   UNK     0     -52.366  -1.333  16.961  0.00  0.00     0.001 A 
HETATM   21  C   UNK     0     -50.970  -1.185  16.782  0.00  0.00     0.007 A 
ENDBRANCH  15  16
ENDBRANCH  14  15
BRANCH  14  22
HETATM   22  C   UNK     0     -46.707  -2.180  15.526  0.00  0.00     0.059 C 
BRANCH  22  23
HETATM   23  C   UNK     0     -46.048  -0.788  15.536  0.00  0.00     0.143 C 
BRANCH  23  24
HETATM   24  C   UNK     0     -45.630  -0.216  16.915  0.00  0.00     0.117 C 
BRANCH  24  25
HETATM   25  N   UNK     0     -46.612  -0.675  17.925  0.00  0.00    -0.352 N 
HETATM   26  C   UNK     0     -47.610   0.113  18.439  0.00  0.00     0.242 C 
HETATM   27  O   UNK     0     -47.816   1.290  18.124  0.00  0.00    -0.271 OA
HETATM   28  H   UNK     0     -46.600  -1.623  18.301  0.00  0.00     0.163 HD
BRANCH  26  29
HETATM   29  C   UNK     0     -48.491  -0.581  19.496  0.00  0.00     0.278 C 
BRANCH  29  30
HETATM   30  O   UNK     0     -48.576   0.186  20.711  0.00  0.00    -0.341 OA
BRANCH  30  31
HETATM   31  C   UNK     0     -47.606  -0.156  21.673  0.00  0.00     0.081 A 
HETATM   32  C   UNK     0     -46.435   0.652  21.888  0.00  0.00    -0.028 A 
HETATM   33  C   UNK     0     -45.494   0.254  22.875  0.00  0.00     0.009 A 
HETATM   34  C   UNK     0     -46.167   1.913  21.102  0.00  0.00     0.051 C 
HETATM   35  C   UNK     0     -45.695  -0.913  23.642  0.00  0.00     0.001 A 
HETATM   36  C   UNK     0     -46.841  -1.709  23.440  0.00  0.00     0.009 A 
HETATM   37  C   UNK     0     -47.800  -1.344  22.465  0.00  0.00    -0.028 A 
HETATM   38  C   UNK     0     -49.002  -2.207  22.279  0.00  0.00     0.051 C 
ENDBRANCH  30  31
ENDBRANCH  29  30
ENDBRANCH  26  29
ENDBRANCH  24  25
BRANCH  24  39
HETATM   39  C   UNK     0     -44.216  -0.730  17.320  0.00  0.00     0.066 C 
BRANCH  39  40
HETATM   40  C   UNK     0     -43.597  -0.013  18.504  0.00  0.00    -0.056 A 
HETATM   41  C   UNK     0     -43.202  -0.748  19.648  0.00  0.00     0.007 A 
HETATM   42  C   UNK     0     -42.626  -0.100  20.768  0.00  0.00     0.001 A 
HETATM   43  C   UNK     0     -42.437   1.295  20.754  0.00  0.00     0.000 A 
HETATM   44  C   UNK     0     -42.826   2.039  19.618  0.00  0.00     0.001 A 
HETATM   45  C   UNK     0     -43.402   1.392  18.500  0.00  0.00     0.007 A 
ENDBRANCH  39  40
ENDBRANCH  24  39
ENDBRANCH  23  24
BRANCH  23  46
HETATM   46  O   UNK     0     -44.878  -0.911  14.765  0.00  0.00    -0.393 OA
HETATM   47  H   UNK     0     -44.735  -1.845  14.655  0.00  0.00     0.210 HD
ENDBRANCH  23  46
ENDBRANCH  22  23
ENDBRANCH  14  22
ENDBRANCH  11  14
ENDBRANCH   9  10
BRANCH   9  48
HETATM   48  C   UNK     0     -51.042  -5.147  16.712  0.00  0.00     0.010 C 
HETATM   49  C   UNK     0     -51.464  -5.083  15.231  0.00  0.00     0.012 C 
HETATM   50  C   UNK     0     -51.846  -6.275  17.401  0.00  0.00     0.012 C 
ENDBRANCH   9  48
ENDBRANCH   3   9
TORSDOF 16
ENDMDL
MODEL 6
REMARK VINA RESULT:      -5.7      1.814      4.120
REMARK  16 active torsions:
REMARK  status: ('A' for Active; 'I' for Inactive)
REMARK    1  A    between atoms: N_3  and  C_13 
REMARK    2  A    between atoms: C_6  and  C_37 
REMARK    3  A    between atoms: C_13  and  C_14 
REMARK    4  A    between atoms: C_13  and  C_17 
REMARK       I    between atoms: C_14  and  N_15 
REMARK    5  A    between atoms: N_15  and  C_16 
REMARK    6  A    between atoms: C_16  and  C_27 
REMARK    7  A    between atoms: C_16  and  C_28 
REMARK    8  A    between atoms: C_25  and  C_27 
REMARK    9  A    between atoms: C_28  and  C_29 
REMARK   10  A    between atoms: C_29  and  C_30 
REMARK   11  A    between atoms: C_29  and  O_36 
REMARK   12  A    between atoms: C_30  and  N_31 
REMARK   13  A    between atoms: C_30  and  C_37 
REMARK       I    between atoms: N_31  and  C_32 
REMARK   14  A    between atoms: C_32  and  C_33 
REMARK   15  A    between atoms: C_33  and  O_34 
REMARK   16  A    between atoms: O_34  and  C_35 
ROOT
HETATM    1  C   UNK     0     -47.346   1.054  22.348  0.00  0.00     0.126 C 
HETATM    2  C   UNK     0     -45.978  -0.588  21.034  0.00  0.00     0.130 C 
HETATM    3  N   UNK     0     -46.260   0.230  19.797  0.00  0.00    -0.320 N 
HETATM    4  C   UNK     0     -47.038   1.378  19.854  0.00  0.00     0.319 C 
HETATM    5  N   UNK     0     -47.542   1.756  21.064  0.00  0.00    -0.343 N 
HETATM    6  O   UNK     0     -47.279   2.048  18.864  0.00  0.00    -0.247 OA
HETATM    7  C   UNK     0     -46.064   0.214  22.349  0.00  0.00     0.040 C 
HETATM    8  H   UNK     0     -48.095   2.611  21.005  0.00  0.00     0.164 HD
ENDROOT
BRANCH   3   9
HETATM    9  C   UNK     0     -45.700  -0.202  18.469  0.00  0.00     0.184 C 
BRANCH   9  10
HETATM   10  C   UNK     0     -46.665  -1.230  17.817  0.00  0.00     0.241 C 
HETATM   11  N   UNK     0     -47.681  -0.633  17.119  0.00  0.00    -0.354 N 
HETATM   12  H   UNK     0     -47.642   0.386  17.141  0.00  0.00     0.162 HD
HETATM   13  O   UNK     0     -46.499  -2.445  17.941  0.00  0.00    -0.271 OA
BRANCH  11  14
HETATM   14  C   UNK     0     -48.746  -1.358  16.394  0.00  0.00     0.091 C 
BRANCH  14  15
HETATM   15  C   UNK     0     -49.789  -1.931  17.381  0.00  0.00     0.063 C 
BRANCH  15  16
HETATM   16  C   UNK     0     -49.893  -3.424  17.505  0.00  0.00    -0.056 A 
HETATM   17  C   UNK     0     -49.747  -4.250  16.357  0.00  0.00     0.007 A 
HETATM   18  C   UNK     0     -49.842  -5.656  16.461  0.00  0.00     0.001 A 
HETATM   19  C   UNK     0     -50.084  -6.254  17.720  0.00  0.00     0.000 A 
HETATM   20  C   UNK     0     -50.230  -5.439  18.868  0.00  0.00     0.001 A 
HETATM   21  C   UNK     0     -50.134  -4.031  18.759  0.00  0.00     0.007 A 
ENDBRANCH  15  16
ENDBRANCH  14  15
BRANCH  14  22
HETATM   22  C   UNK     0     -49.521  -0.422  15.441  0.00  0.00     0.059 C 
BRANCH  22  23
HETATM   23  C   UNK     0     -50.604  -0.999  14.511  0.00  0.00     0.143 C 
BRANCH  23  24
HETATM   24  C   UNK     0     -52.081  -0.705  14.881  0.00  0.00     0.117 C 
BRANCH  24  25
HETATM   25  N   UNK     0     -52.520   0.487  14.118  0.00  0.00    -0.352 N 
HETATM   26  C   UNK     0     -52.438   1.773  14.588  0.00  0.00     0.242 C 
HETATM   27  O   UNK     0     -51.987   2.097  15.692  0.00  0.00    -0.271 OA
HETATM   28  H   UNK     0     -52.917   0.415  13.182  0.00  0.00     0.163 HD
BRANCH  26  29
HETATM   29  C   UNK     0     -52.984   2.842  13.621  0.00  0.00     0.278 C 
BRANCH  29  30
HETATM   30  O   UNK     0     -52.333   2.787  12.338  0.00  0.00    -0.341 OA
BRANCH  30  31
HETATM   31  C   UNK     0     -52.815   3.733  11.412  0.00  0.00     0.081 A 
HETATM   32  C   UNK     0     -54.094   3.583  10.772  0.00  0.00    -0.028 A 
HETATM   33  C   UNK     0     -54.525   4.572   9.848  0.00  0.00     0.009 A 
HETATM   34  C   UNK     0     -55.003   2.409  11.048  0.00  0.00     0.051 C 
HETATM   35  C   UNK     0     -53.718   5.692   9.556  0.00  0.00     0.001 A 
HETATM   36  C   UNK     0     -52.464   5.849  10.179  0.00  0.00     0.009 A 
HETATM   37  C   UNK     0     -52.002   4.883  11.105  0.00  0.00    -0.028 A 
HETATM   38  C   UNK     0     -50.672   5.081  11.749  0.00  0.00     0.051 C 
ENDBRANCH  30  31
ENDBRANCH  29  30
ENDBRANCH  26  29
ENDBRANCH  24  25
BRANCH  24  39
HETATM   39  C   UNK     0     -52.994  -1.908  14.504  0.00  0.00     0.066 C 
BRANCH  39  40
HETATM   40  C   UNK     0     -53.244  -2.892  15.630  0.00  0.00    -0.056 A 
HETATM   41  C   UNK     0     -53.425  -2.419  16.953  0.00  0.00     0.007 A 
HETATM   42  C   UNK     0     -53.655  -3.320  18.023  0.00  0.00     0.001 A 
HETATM   43  C   UNK     0     -53.706  -4.705  17.779  0.00  0.00     0.000 A 
HETATM   44  C   UNK     0     -53.527  -5.188  16.464  0.00  0.00     0.001 A 
HETATM   45  C   UNK     0     -53.297  -4.289  15.396  0.00  0.00     0.007 A 
ENDBRANCH  39  40
ENDBRANCH  24  39
ENDBRANCH  23  24
BRANCH  23  46
HETATM   46  O   UNK     0     -50.370  -0.427  13.247  0.00  0.00    -0.393 OA
HETATM   47  H   UNK     0     -49.716  -0.977  12.830  0.00  0.00     0.210 HD
ENDBRANCH  23  46
ENDBRANCH  22  23
ENDBRANCH  14  22
ENDBRANCH  11  14
ENDBRANCH   9  10
BRANCH   9  48
HETATM   48  C   UNK     0     -44.230  -0.764  18.604  0.00  0.00     0.010 C 
HETATM   49  C   UNK     0     -43.719  -1.462  17.329  0.00  0.00     0.012 C 
HETATM   50  C   UNK     0     -43.240   0.365  18.973  0.00  0.00     0.012 C 
ENDBRANCH   9  48
ENDBRANCH   3   9
TORSDOF 16
ENDMDL
MODEL 7
REMARK VINA RESULT:      -5.7      2.375      4.841
REMARK  16 active torsions:
REMARK  status: ('A' for Active; 'I' for Inactive)
REMARK    1  A    between atoms: N_3  and  C_13 
REMARK    2  A    between atoms: C_6  and  C_37 
REMARK    3  A    between atoms: C_13  and  C_14 
REMARK    4  A    between atoms: C_13  and  C_17 
REMARK       I    between atoms: C_14  and  N_15 
REMARK    5  A    between atoms: N_15  and  C_16 
REMARK    6  A    between atoms: C_16  and  C_27 
REMARK    7  A    between atoms: C_16  and  C_28 
REMARK    8  A    between atoms: C_25  and  C_27 
REMARK    9  A    between atoms: C_28  and  C_29 
REMARK   10  A    between atoms: C_29  and  C_30 
REMARK   11  A    between atoms: C_29  and  O_36 
REMARK   12  A    between atoms: C_30  and  N_31 
REMARK   13  A    between atoms: C_30  and  C_37 
REMARK       I    between atoms: N_31  and  C_32 
REMARK   14  A    between atoms: C_32  and  C_33 
REMARK   15  A    between atoms: C_33  and  O_34 
REMARK   16  A    between atoms: O_34  and  C_35 
ROOT
HETATM    1  C   UNK     0     -50.886   0.816  20.629  0.00  0.00     0.126 C 
HETATM    2  C   UNK     0     -48.584   0.524  21.583  0.00  0.00     0.130 C 
HETATM    3  N   UNK     0     -48.114   1.640  20.682  0.00  0.00    -0.320 N 
HETATM    4  C   UNK     0     -48.988   2.286  19.818  0.00  0.00     0.319 C 
HETATM    5  N   UNK     0     -50.292   1.888  19.805  0.00  0.00    -0.343 N 
HETATM    6  O   UNK     0     -48.624   3.186  19.081  0.00  0.00    -0.247 OA
HETATM    7  C   UNK     0     -50.089   0.580  21.917  0.00  0.00     0.040 C 
HETATM    8  H   UNK     0     -50.855   2.422  19.143  0.00  0.00     0.164 HD
ENDROOT
BRANCH   3   9
HETATM    9  C   UNK     0     -46.671   2.064  20.706  0.00  0.00     0.184 C 
BRANCH   9  10
HETATM   10  C   UNK     0     -45.794   0.927  20.114  0.00  0.00     0.241 C 
HETATM   11  N   UNK     0     -45.372   1.193  18.839  0.00  0.00    -0.354 N 
HETATM   12  H   UNK     0     -45.701   2.091  18.483  0.00  0.00     0.162 HD
HETATM   13  O   UNK     0     -45.532  -0.091  20.757  0.00  0.00    -0.271 OA
BRANCH  11  14
HETATM   14  C   UNK     0     -44.523   0.295  18.026  0.00  0.00     0.091 C 
BRANCH  14  15
HETATM   15  C   UNK     0     -43.215  -0.049  18.776  0.00  0.00     0.063 C 
BRANCH  15  16
HETATM   16  C   UNK     0     -42.451   1.079  19.408  0.00  0.00    -0.056 A 
HETATM   17  C   UNK     0     -42.287   2.310  18.716  0.00  0.00     0.007 A 
HETATM   18  C   UNK     0     -41.571   3.379  19.300  0.00  0.00     0.001 A 
HETATM   19  C   UNK     0     -41.010   3.228  20.590  0.00  0.00     0.000 A 
HETATM   20  C   UNK     0     -41.169   2.006  21.286  0.00  0.00     0.001 A 
HETATM   21  C   UNK     0     -41.887   0.938  20.697  0.00  0.00     0.007 A 
ENDBRANCH  15  16
ENDBRANCH  14  15
BRANCH  14  22
HETATM   22  C   UNK     0     -45.228  -1.050  17.746  0.00  0.00     0.059 C 
BRANCH  22  23
HETATM   23  C   UNK     0     -46.145  -1.194  16.518  0.00  0.00     0.143 C 
BRANCH  23  24
HETATM   24  C   UNK     0     -47.612  -0.718  16.673  0.00  0.00     0.117 C 
BRANCH  24  25
HETATM   25  N   UNK     0     -48.456  -1.506  15.744  0.00  0.00    -0.352 N 
HETATM   26  C   UNK     0     -48.727  -1.137  14.452  0.00  0.00     0.242 C 
HETATM   27  O   UNK     0     -48.302  -0.115  13.903  0.00  0.00    -0.271 OA
HETATM   28  H   UNK     0     -48.891  -2.386  16.021  0.00  0.00     0.163 HD
BRANCH  26  29
HETATM   29  C   UNK     0     -49.651  -2.108  13.691  0.00  0.00     0.278 C 
BRANCH  29  30
HETATM   30  O   UNK     0     -51.010  -1.635  13.651  0.00  0.00    -0.341 OA
BRANCH  30  31
HETATM   31  C   UNK     0     -51.629  -1.568  14.914  0.00  0.00     0.081 A 
HETATM   32  C   UNK     0     -51.950  -2.753  15.664  0.00  0.00    -0.028 A 
HETATM   33  C   UNK     0     -52.574  -2.620  16.934  0.00  0.00     0.009 A 
HETATM   34  C   UNK     0     -51.648  -4.141  15.151  0.00  0.00     0.051 C 
HETATM   35  C   UNK     0     -52.876  -1.348  17.463  0.00  0.00     0.001 A 
HETATM   36  C   UNK     0     -52.563  -0.181  16.737  0.00  0.00     0.009 A 
HETATM   37  C   UNK     0     -51.942  -0.275  15.469  0.00  0.00    -0.028 A 
HETATM   38  C   UNK     0     -51.622   0.980  14.729  0.00  0.00     0.051 C 
ENDBRANCH  30  31
ENDBRANCH  29  30
ENDBRANCH  26  29
ENDBRANCH  24  25
BRANCH  24  39
HETATM   39  C   UNK     0     -48.116  -0.949  18.128  0.00  0.00     0.066 C 
BRANCH  39  40
HETATM   40  C   UNK     0     -48.814  -2.276  18.354  0.00  0.00    -0.056 A 
HETATM   41  C   UNK     0     -49.790  -2.396  19.374  0.00  0.00     0.007 A 
HETATM   42  C   UNK     0     -50.452  -3.627  19.607  0.00  0.00     0.001 A 
HETATM   43  C   UNK     0     -50.145  -4.752  18.819  0.00  0.00     0.000 A 
HETATM   44  C   UNK     0     -49.174  -4.644  17.799  0.00  0.00     0.001 A 
HETATM   45  C   UNK     0     -48.513  -3.416  17.567  0.00  0.00     0.007 A 
ENDBRANCH  39  40
ENDBRANCH  24  39
ENDBRANCH  23  24
BRANCH  23  46
HETATM   46  O   UNK     0     -45.558  -0.410  15.506  0.00  0.00    -0.393 OA
HETATM   47  H   UNK     0     -45.744  -0.859  14.689  0.00  0.00     0.210 HD
ENDBRANCH  23  46
ENDBRANCH  22  23
ENDBRANCH  14  22
ENDBRANCH  11  14
ENDBRANCH   9  10
BRANCH   9  48
HETATM   48  C   UNK     0     -46.204   2.488  22.154  0.00  0.00     0.010 C 
HETATM   49  C   UNK     0     -44.713   2.866  22.233  0.00  0.00     0.012 C 
HETATM   50  C   UNK     0     -47.040   3.680  22.675  0.00  0.00     0.012 C 
ENDBRANCH   9  48
ENDBRANCH   3   9
TORSDOF 16
ENDMDL
MODEL 8
REMARK VINA RESULT:      -5.6      3.288      8.373
REMARK  16 active torsions:
REMARK  status: ('A' for Active; 'I' for Inactive)
REMARK    1  A    between atoms: N_3  and  C_13 
REMARK    2  A    between atoms: C_6  and  C_37 
REMARK    3  A    between atoms: C_13  and  C_14 
REMARK    4  A    between atoms: C_13  and  C_17 
REMARK       I    between atoms: C_14  and  N_15 
REMARK    5  A    between atoms: N_15  and  C_16 
REMARK    6  A    between atoms: C_16  and  C_27 
REMARK    7  A    between atoms: C_16  and  C_28 
REMARK    8  A    between atoms: C_25  and  C_27 
REMARK    9  A    between atoms: C_28  and  C_29 
REMARK   10  A    between atoms: C_29  and  C_30 
REMARK   11  A    between atoms: C_29  and  O_36 
REMARK   12  A    between atoms: C_30  and  N_31 
REMARK   13  A    between atoms: C_30  and  C_37 
REMARK       I    between atoms: N_31  and  C_32 
REMARK   14  A    between atoms: C_32  and  C_33 
REMARK   15  A    between atoms: C_33  and  O_34 
REMARK   16  A    between atoms: O_34  and  C_35 
ROOT
HETATM    1  C   UNK     0     -48.410  -8.669  18.536  0.00  0.00     0.126 C 
HETATM    2  C   UNK     0     -50.574  -7.490  18.064  0.00  0.00     0.130 C 
HETATM    3  N   UNK     0     -49.785  -6.226  17.826  0.00  0.00    -0.320 N 
HETATM    4  C   UNK     0     -48.402  -6.206  17.943  0.00  0.00     0.319 C 
HETATM    5  N   UNK     0     -47.767  -7.366  18.276  0.00  0.00    -0.343 N 
HETATM    6  O   UNK     0     -47.750  -5.193  17.757  0.00  0.00    -0.247 OA
HETATM    7  C   UNK     0     -49.767  -8.785  17.833  0.00  0.00     0.040 C 
HETATM    8  H   UNK     0     -46.755  -7.252  18.334  0.00  0.00     0.164 HD
ENDROOT
BRANCH   3   9
HETATM    9  C   UNK     0     -50.501  -4.953  17.463  0.00  0.00     0.184 C 
BRANCH   9  10
HETATM   10  C   UNK     0     -49.982  -4.450  16.088  0.00  0.00     0.241 C 
HETATM   11  N   UNK     0     -49.288  -3.274  16.183  0.00  0.00    -0.354 N 
HETATM   12  H   UNK     0     -49.224  -2.917  17.136  0.00  0.00     0.162 HD
HETATM   13  O   UNK     0     -50.197  -5.073  15.046  0.00  0.00    -0.271 OA
BRANCH  11  14
HETATM   14  C   UNK     0     -48.676  -2.561  15.040  0.00  0.00     0.091 C 
BRANCH  14  15
HETATM   15  C   UNK     0     -49.409  -1.226  14.772  0.00  0.00     0.063 C 
BRANCH  15  16
HETATM   16  C   UNK     0     -50.878  -1.158  15.081  0.00  0.00    -0.056 A 
HETATM   17  C   UNK     0     -51.357  -0.284  16.094  0.00  0.00     0.007 A 
HETATM   18  C   UNK     0     -52.737  -0.212  16.393  0.00  0.00     0.001 A 
HETATM   19  C   UNK     0     -53.655  -1.015  15.677  0.00  0.00     0.000 A 
HETATM   20  C   UNK     0     -53.186  -1.886  14.666  0.00  0.00     0.001 A 
HETATM   21  C   UNK     0     -51.803  -1.956  14.370  0.00  0.00     0.007 A 
ENDBRANCH  15  16
ENDBRANCH  14  15
BRANCH  14  22
HETATM   22  C   UNK     0     -47.202  -2.196  15.324  0.00  0.00     0.059 C 
BRANCH  22  23
HETATM   23  C   UNK     0     -46.794  -0.720  15.481  0.00  0.00     0.143 C 
BRANCH  23  24
HETATM   24  C   UNK     0     -46.514  -0.214  16.919  0.00  0.00     0.117 C 
BRANCH  24  25
HETATM   25  N   UNK     0     -47.786  -0.246  17.677  0.00  0.00    -0.352 N 
HETATM   26  C   UNK     0     -48.254   0.796  18.437  0.00  0.00     0.242 C 
HETATM   27  O   UNK     0     -47.683   1.882  18.579  0.00  0.00    -0.271 OA
HETATM   28  H   UNK     0     -48.398  -1.062  17.676  0.00  0.00     0.163 HD
BRANCH  26  29
HETATM   29  C   UNK     0     -49.590   0.515  19.153  0.00  0.00     0.278 C 
BRANCH  29  30
HETATM   30  O   UNK     0     -49.516   0.810  20.560  0.00  0.00    -0.341 OA
BRANCH  30  31
HETATM   31  C   UNK     0     -49.502  -0.331  21.385  0.00  0.00     0.081 A 
HETATM   32  C   UNK     0     -48.271  -0.932  21.825  0.00  0.00    -0.028 A 
HETATM   33  C   UNK     0     -48.322  -2.081  22.658  0.00  0.00     0.009 A 
HETATM   34  C   UNK     0     -46.919  -0.384  21.435  0.00  0.00     0.051 C 
HETATM   35  C   UNK     0     -49.558  -2.634  23.056  0.00  0.00     0.001 A 
HETATM   36  C   UNK     0     -50.769  -2.051  22.632  0.00  0.00     0.009 A 
HETATM   37  C   UNK     0     -50.757  -0.904  21.801  0.00  0.00    -0.028 A 
HETATM   38  C   UNK     0     -52.056  -0.311  21.373  0.00  0.00     0.051 C 
ENDBRANCH  30  31
ENDBRANCH  29  30
ENDBRANCH  26  29
ENDBRANCH  24  25
BRANCH  24  39
HETATM   39  C   UNK     0     -45.479  -1.131  17.635  0.00  0.00     0.066 C 
BRANCH  39  40
HETATM   40  C   UNK     0     -44.354  -0.392  18.334  0.00  0.00    -0.056 A 
HETATM   41  C   UNK     0     -44.322   1.024  18.317  0.00  0.00     0.007 A 
HETATM   42  C   UNK     0     -43.279   1.736  18.958  0.00  0.00     0.001 A 
HETATM   43  C   UNK     0     -42.255   1.037  19.625  0.00  0.00     0.000 A 
HETATM   44  C   UNK     0     -42.276  -0.374  19.649  0.00  0.00     0.001 A 
HETATM   45  C   UNK     0     -43.318  -1.086  19.008  0.00  0.00     0.007 A 
ENDBRANCH  39  40
ENDBRANCH  24  39
ENDBRANCH  23  24
BRANCH  23  46
HETATM   46  O   UNK     0     -45.602  -0.571  14.748  0.00  0.00    -0.393 OA
HETATM   47  H   UNK     0     -45.079  -1.341  14.943  0.00  0.00     0.210 HD
ENDBRANCH  23  46
ENDBRANCH  22  23
ENDBRANCH  14  22
ENDBRANCH  11  14
ENDBRANCH   9  10
BRANCH   9  48
HETATM   48  C   UNK     0     -50.365  -3.857  18.591  0.00  0.00     0.010 C 
HETATM   49  C   UNK     0     -51.543  -2.864  18.628  0.00  0.00     0.012 C 
HETATM   50  C   UNK     0     -50.236  -4.514  19.985  0.00  0.00     0.012 C 
ENDBRANCH   9  48
ENDBRANCH   3   9
TORSDOF 16
ENDMDL
MODEL 9
REMARK VINA RESULT:      -5.6      3.262      7.483
REMARK  16 active torsions:
REMARK  status: ('A' for Active; 'I' for Inactive)
REMARK    1  A    between atoms: N_3  and  C_13 
REMARK    2  A    between atoms: C_6  and  C_37 
REMARK    3  A    between atoms: C_13  and  C_14 
REMARK    4  A    between atoms: C_13  and  C_17 
REMARK       I    between atoms: C_14  and  N_15 
REMARK    5  A    between atoms: N_15  and  C_16 
REMARK    6  A    between atoms: C_16  and  C_27 
REMARK    7  A    between atoms: C_16  and  C_28 
REMARK    8  A    between atoms: C_25  and  C_27 
REMARK    9  A    between atoms: C_28  and  C_29 
REMARK   10  A    between atoms: C_29  and  C_30 
REMARK   11  A    between atoms: C_29  and  O_36 
REMARK   12  A    between atoms: C_30  and  N_31 
REMARK   13  A    between atoms: C_30  and  C_37 
REMARK       I    between atoms: N_31  and  C_32 
REMARK   14  A    between atoms: C_32  and  C_33 
REMARK   15  A    between atoms: C_33  and  O_34 
REMARK   16  A    between atoms: O_34  and  C_35 
ROOT
HETATM    1  C   UNK     0     -52.584   3.779  21.849  0.00  0.00     0.126 C 
HETATM    2  C   UNK     0     -51.605   2.393  20.001  0.00  0.00     0.130 C 
HETATM    3  N   UNK     0     -50.630   1.822  21.002  0.00  0.00    -0.320 N 
HETATM    4  C   UNK     0     -50.647   2.219  22.332  0.00  0.00     0.319 C 
HETATM    5  N   UNK     0     -51.575   3.141  22.717  0.00  0.00    -0.343 N 
HETATM    6  O   UNK     0     -49.864   1.770  23.151  0.00  0.00    -0.247 OA
HETATM    7  C   UNK     0     -52.916   2.913  20.628  0.00  0.00     0.040 C 
HETATM    8  H   UNK     0     -51.511   3.365  23.710  0.00  0.00     0.164 HD
ENDROOT
BRANCH   3   9
HETATM    9  C   UNK     0     -49.610   0.808  20.559  0.00  0.00     0.184 C 
BRANCH   9  10
HETATM   10  C   UNK     0     -48.221   1.494  20.452  0.00  0.00     0.241 C 
HETATM   11  N   UNK     0     -47.261   0.862  21.196  0.00  0.00    -0.354 N 
HETATM   12  H   UNK     0     -47.610   0.047  21.700  0.00  0.00     0.162 HD
HETATM   13  O   UNK     0     -48.045   2.499  19.762  0.00  0.00    -0.271 OA
BRANCH  11  14
HETATM   14  C   UNK     0     -45.847   1.288  21.286  0.00  0.00     0.091 C 
BRANCH  14  15
HETATM   15  C   UNK     0     -45.524   1.822  22.700  0.00  0.00     0.063 C 
BRANCH  15  16
HETATM   16  C   UNK     0     -44.177   2.448  22.924  0.00  0.00    -0.056 A 
HETATM   17  C   UNK     0     -43.843   3.675  22.288  0.00  0.00     0.007 A 
HETATM   18  C   UNK     0     -42.579   4.274  22.491  0.00  0.00     0.001 A 
HETATM   19  C   UNK     0     -41.632   3.649  23.336  0.00  0.00     0.000 A 
HETATM   20  C   UNK     0     -41.957   2.428  23.973  0.00  0.00     0.001 A 
HETATM   21  C   UNK     0     -43.224   1.832  23.767  0.00  0.00     0.007 A 
ENDBRANCH  15  16
ENDBRANCH  14  15
BRANCH  14  22
HETATM   22  C   UNK     0     -44.883   0.106  21.039  0.00  0.00     0.059 C 
BRANCH  22  23
HETATM   23  C   UNK     0     -44.871  -0.600  19.671  0.00  0.00     0.143 C 
BRANCH  23  24
HETATM   24  C   UNK     0     -44.266   0.184  18.478  0.00  0.00     0.117 C 
BRANCH  24  25
HETATM   25  N   UNK     0     -45.231   0.137  17.355  0.00  0.00    -0.352 N 
HETATM   26  C   UNK     0     -45.505  -0.990  16.624  0.00  0.00     0.242 C 
HETATM   27  O   UNK     0     -44.990  -2.098  16.810  0.00  0.00    -0.271 OA
HETATM   28  H   UNK     0     -45.758   0.958  17.059  0.00  0.00     0.163 HD
BRANCH  26  29
HETATM   29  C   UNK     0     -46.527  -0.783  15.489  0.00  0.00     0.278 C 
BRANCH  29  30
HETATM   30  O   UNK     0     -47.088  -2.030  15.039  0.00  0.00    -0.341 OA
BRANCH  30  31
HETATM   31  C   UNK     0     -48.464  -2.169  15.307  0.00  0.00     0.081 A 
HETATM   32  C   UNK     0     -49.448  -1.342  14.661  0.00  0.00    -0.028 A 
HETATM   33  C   UNK     0     -50.822  -1.531  14.972  0.00  0.00     0.009 A 
HETATM   34  C   UNK     0     -49.077  -0.275  13.659  0.00  0.00     0.051 C 
HETATM   35  C   UNK     0     -51.226  -2.516  15.898  0.00  0.00     0.001 A 
HETATM   36  C   UNK     0     -50.269  -3.332  16.534  0.00  0.00     0.009 A 
HETATM   37  C   UNK     0     -48.892  -3.172  16.249  0.00  0.00    -0.028 A 
HETATM   38  C   UNK     0     -47.906  -4.054  16.937  0.00  0.00     0.051 C 
ENDBRANCH  30  31
ENDBRANCH  29  30
ENDBRANCH  26  29
ENDBRANCH  24  25
BRANCH  24  39
HETATM   39  C   UNK     0     -44.016   1.671  18.865  0.00  0.00     0.066 C 
BRANCH  39  40
HETATM   40  C   UNK     0     -42.601   1.981  19.312  0.00  0.00    -0.056 A 
HETATM   41  C   UNK     0     -41.944   3.137  18.825  0.00  0.00     0.007 A 
HETATM   42  C   UNK     0     -40.619   3.444  19.224  0.00  0.00     0.001 A 
HETATM   43  C   UNK     0     -39.938   2.596  20.118  0.00  0.00     0.000 A 
HETATM   44  C   UNK     0     -40.583   1.441  20.610  0.00  0.00     0.001 A 
HETATM   45  C   UNK     0     -41.905   1.134  20.211  0.00  0.00     0.007 A 
ENDBRANCH  39  40
ENDBRANCH  24  39
ENDBRANCH  23  24
BRANCH  23  46
HETATM   46  O   UNK     0     -44.092  -1.760  19.844  0.00  0.00    -0.393 OA
HETATM   47  H   UNK     0     -43.535  -1.816  19.076  0.00  0.00     0.210 HD
ENDBRANCH  23  46
ENDBRANCH  22  23
ENDBRANCH  14  22
ENDBRANCH  11  14
ENDBRANCH   9  10
BRANCH   9  48
HETATM   48  C   UNK     0     -50.032   0.097  19.213  0.00  0.00     0.010 C 
HETATM   49  C   UNK     0     -48.834  -0.318  18.337  0.00  0.00     0.012 C 
HETATM   50  C   UNK     0     -50.887  -1.159  19.498  0.00  0.00     0.012 C 
ENDBRANCH   9  48
ENDBRANCH   3   9
TORSDOF 16
ENDMDL
MODEL 10
REMARK VINA RESULT:      -5.5      3.133      9.364
REMARK  16 active torsions:
REMARK  status: ('A' for Active; 'I' for Inactive)
REMARK    1  A    between atoms: N_3  and  C_13 
REMARK    2  A    between atoms: C_6  and  C_37 
REMARK    3  A    between atoms: C_13  and  C_14 
REMARK    4  A    between atoms: C_13  and  C_17 
REMARK       I    between atoms: C_14  and  N_15 
REMARK    5  A    between atoms: N_15  and  C_16 
REMARK    6  A    between atoms: C_16  and  C_27 
REMARK    7  A    between atoms: C_16  and  C_28 
REMARK    8  A    between atoms: C_25  and  C_27 
REMARK    9  A    between atoms: C_28  and  C_29 
REMARK   10  A    between atoms: C_29  and  C_30 
REMARK   11  A    between atoms: C_29  and  O_36 
REMARK   12  A    between atoms: C_30  and  N_31 
REMARK   13  A    between atoms: C_30  and  C_37 
REMARK       I    between atoms: N_31  and  C_32 
REMARK   14  A    between atoms: C_32  and  C_33 
REMARK   15  A    between atoms: C_33  and  O_34 
REMARK   16  A    between atoms: O_34  and  C_35 
ROOT
HETATM    1  C   UNK     0     -52.657   2.055  17.376  0.00  0.00     0.126 C 
HETATM    2  C   UNK     0     -51.821   0.051  18.632  0.00  0.00     0.130 C 
HETATM    3  N   UNK     0     -50.602   0.853  19.018  0.00  0.00    -0.320 N 
HETATM    4  C   UNK     0     -50.441   2.166  18.598  0.00  0.00     0.319 C 
HETATM    5  N   UNK     0     -51.419   2.720  17.826  0.00  0.00    -0.343 N 
HETATM    6  O   UNK     0     -49.461   2.826  18.897  0.00  0.00    -0.247 OA
HETATM    7  C   UNK     0     -53.062   0.910  18.312  0.00  0.00     0.040 C 
HETATM    8  H   UNK     0     -51.212   3.686  17.571  0.00  0.00     0.164 HD
ENDROOT
BRANCH   3   9
HETATM    9  C   UNK     0     -49.531   0.225  19.868  0.00  0.00     0.184 C 
BRANCH   9  10
HETATM   10  C   UNK     0     -48.700  -0.758  18.999  0.00  0.00     0.241 C 
HETATM   11  N   UNK     0     -48.001  -0.125  18.006  0.00  0.00    -0.354 N 
HETATM   12  H   UNK     0     -48.138   0.885  17.995  0.00  0.00     0.162 HD
HETATM   13  O   UNK     0     -48.700  -1.972  19.213  0.00  0.00    -0.271 OA
BRANCH  11  14
HETATM   14  C   UNK     0     -47.123  -0.805  17.027  0.00  0.00     0.091 C 
BRANCH  14  15
HETATM   15  C   UNK     0     -47.663  -0.624  15.590  0.00  0.00     0.063 C 
BRANCH  15  16
HETATM   16  C   UNK     0     -48.949  -1.313  15.231  0.00  0.00    -0.056 A 
HETATM   17  C   UNK     0     -50.054  -0.562  14.746  0.00  0.00     0.007 A 
HETATM   18  C   UNK     0     -51.269  -1.200  14.406  0.00  0.00     0.001 A 
HETATM   19  C   UNK     0     -51.391  -2.602  14.546  0.00  0.00     0.000 A 
HETATM   20  C   UNK     0     -50.295  -3.357  15.028  0.00  0.00     0.001 A 
HETATM   21  C   UNK     0     -49.081  -2.714  15.368  0.00  0.00     0.007 A 
ENDBRANCH  15  16
ENDBRANCH  14  15
BRANCH  14  22
HETATM   22  C   UNK     0     -45.699  -0.207  17.033  0.00  0.00     0.059 C 
BRANCH  22  23
HETATM   23  C   UNK     0     -44.692  -0.638  18.115  0.00  0.00     0.143 C 
BRANCH  23  24
HETATM   24  C   UNK     0     -44.105   0.478  19.018  0.00  0.00     0.117 C 
BRANCH  24  25
HETATM   25  N   UNK     0     -44.915   0.545  20.256  0.00  0.00    -0.352 N 
HETATM   26  C   UNK     0     -45.967   1.404  20.440  0.00  0.00     0.242 C 
HETATM   27  O   UNK     0     -46.372   2.219  19.603  0.00  0.00    -0.271 OA
HETATM   28  H   UNK     0     -44.731  -0.058  21.058  0.00  0.00     0.163 HD
BRANCH  26  29
HETATM   29  C   UNK     0     -46.639   1.306  21.824  0.00  0.00     0.278 C 
BRANCH  29  30
HETATM   30  O   UNK     0     -46.073   2.239  22.763  0.00  0.00    -0.341 OA
BRANCH  30  31
HETATM   31  C   UNK     0     -44.918   1.765  23.415  0.00  0.00     0.081 A 
HETATM   32  C   UNK     0     -43.631   2.376  23.217  0.00  0.00    -0.028 A 
HETATM   33  C   UNK     0     -42.504   1.853  23.905  0.00  0.00     0.009 A 
HETATM   34  C   UNK     0     -43.431   3.560  22.300  0.00  0.00     0.051 C 
HETATM   35  C   UNK     0     -42.634   0.751  24.776  0.00  0.00     0.001 A 
HETATM   36  C   UNK     0     -43.891   0.147  24.980  0.00  0.00     0.009 A 
HETATM   37  C   UNK     0     -45.036   0.641  24.310  0.00  0.00    -0.028 A 
HETATM   38  C   UNK     0     -46.351  -0.019  24.549  0.00  0.00     0.051 C 
ENDBRANCH  30  31
ENDBRANCH  29  30
ENDBRANCH  26  29
ENDBRANCH  24  25
BRANCH  24  39
HETATM   39  C   UNK     0     -42.629   0.160  19.399  0.00  0.00     0.066 C 
BRANCH  39  40
HETATM   40  C   UNK     0     -41.783   1.377  19.722  0.00  0.00    -0.056 A 
HETATM   41  C   UNK     0     -40.826   1.315  20.764  0.00  0.00     0.007 A 
HETATM   42  C   UNK     0     -40.028   2.440  21.087  0.00  0.00     0.001 A 
HETATM   43  C   UNK     0     -40.178   3.641  20.368  0.00  0.00     0.000 A 
HETATM   44  C   UNK     0     -41.128   3.714  19.325  0.00  0.00     0.001 A 
HETATM   45  C   UNK     0     -41.925   2.591  19.003  0.00  0.00     0.007 A 
ENDBRANCH  39  40
ENDBRANCH  24  39
ENDBRANCH  23  24
BRANCH  23  46
HETATM   46  O   UNK     0     -45.386  -1.530  18.954  0.00  0.00    -0.393 OA
HETATM   47  H   UNK     0     -45.325  -1.163  19.829  0.00  0.00     0.210 HD
ENDBRANCH  23  46
ENDBRANCH  22  23
ENDBRANCH  14  22
ENDBRANCH  11  14
ENDBRANCH   9  10
BRANCH   9  48
HETATM   48  C   UNK     0     -50.129  -0.471  21.153  0.00  0.00     0.010 C 
HETATM   49  C   UNK     0     -49.063  -1.141  22.041  0.00  0.00     0.012 C 
HETATM   50  C   UNK     0     -50.914   0.546  22.014  0.00  0.00     0.012 C 
ENDBRANCH   9  48
ENDBRANCH   3   9
TORSDOF 16
ENDMDL
