MODEL 1
REMARK VINA RESULT:      -7.2      0.000      0.000
REMARK  15 active torsions:
REMARK  status: ('A' for Active; 'I' for Inactive)
REMARK    1  A    between atoms: O_2  and  C_18 
REMARK    2  A    between atoms: O_2  and  C_22 
REMARK    3  A    between atoms: O_4  and  C_14 
REMARK    4  A    between atoms: O_5  and  C_21 
REMARK    5  A    between atoms: O_5  and  C_25 
REMARK    6  A    between atoms: O_6  and  C_15 
REMARK    7  A    between atoms: O_7  and  C_16 
REMARK    8  A    between atoms: O_8  and  C_17 
REMARK    9  A    between atoms: O_9  and  C_19 
REMARK   10  A    between atoms: O_10  and  C_20 
REMARK   11  A    between atoms: O_11  and  C_30 
REMARK   12  A    between atoms: O_12  and  C_32 
REMARK   13  A    between atoms: C_13  and  C_22 
REMARK   14  A    between atoms: C_25  and  C_26 
REMARK   15  A    between atoms: C_26  and  C_27 
ROOT
HETATM    1  O   UNK     0     -46.396  -1.007  18.043  0.00  0.00    -0.348 OA
HETATM    2  C   UNK     0     -46.821  -0.294  16.880  0.00  0.00     0.180 C 
HETATM    3  C   UNK     0     -46.375  -1.039  15.620  0.00  0.00     0.180 C 
HETATM    4  C   UNK     0     -44.863  -1.263  15.628  0.00  0.00     0.183 C 
HETATM    5  C   UNK     0     -44.400  -1.861  16.956  0.00  0.00     0.204 C 
HETATM    6  C   UNK     0     -44.976  -1.091  18.144  0.00  0.00     0.291 C 
ENDROOT
BRANCH   2   7
HETATM    7  C   UNK     0     -48.339  -0.161  16.951  0.00  0.00     0.205 C 
BRANCH   7   8
HETATM    8  O   UNK     0     -48.912  -1.457  17.048  0.00  0.00    -0.356 OA
BRANCH   8   9
HETATM    9  C   UNK     0     -50.271  -1.458  16.622  0.00  0.00     0.291 C 
HETATM   10  O   UNK     0     -50.733  -2.767  16.273  0.00  0.00    -0.351 OA
HETATM   11  C   UNK     0     -50.063  -3.345  15.147  0.00  0.00     0.152 C 
HETATM   12  C   UNK     0     -50.232  -2.470  13.897  0.00  0.00     0.178 C 
HETATM   13  C   UNK     0     -50.647  -4.742  14.951  0.00  0.00     0.042 C 
HETATM   14  C   UNK     0     -49.770  -1.043  14.189  0.00  0.00     0.183 C 
HETATM   15  C   UNK     0     -50.444  -0.495  15.449  0.00  0.00     0.204 C 
BRANCH  12  16
HETATM   16  O   UNK     0     -49.442  -2.982  12.827  0.00  0.00    -0.390 OA
HETATM   17  H   UNK     0     -49.976  -2.945  12.014  0.00  0.00     0.210 HD
ENDBRANCH  12  16
BRANCH  14  18
HETATM   18  O   UNK     0     -50.079  -0.211  13.073  0.00  0.00    -0.390 OA
HETATM   19  H   UNK     0     -50.018   0.713  13.369  0.00  0.00     0.210 HD
ENDBRANCH  14  18
BRANCH  15  20
HETATM   20  O   UNK     0     -51.845  -0.335  15.221  0.00  0.00    -0.388 OA
HETATM   21  H   UNK     0     -52.314  -0.811  15.926  0.00  0.00     0.210 HD
ENDBRANCH  15  20
ENDBRANCH   8   9
ENDBRANCH   7   8
ENDBRANCH   2   7
BRANCH   6  22
HETATM   22  O   UNK     0     -44.618  -1.790  19.337  0.00  0.00    -0.358 OA
BRANCH  22  23
HETATM   23  C   UNK     0     -43.711  -1.035  20.125  0.00  0.00     0.175 C 
BRANCH  23  24
HETATM   24  C   UNK     0     -44.143   0.427  20.147  0.00  0.00     0.065 C 
BRANCH  24  25
HETATM   25  C   UNK     0     -42.984   1.372  19.946  0.00  0.00    -0.053 A 
HETATM   26  C   UNK     0     -41.956   1.426  20.886  0.00  0.00     0.046 A 
HETATM   27  C   UNK     0     -40.884   2.298  20.698  0.00  0.00     0.099 A 
HETATM   28  C   UNK     0     -40.841   3.117  19.570  0.00  0.00     0.098 A 
HETATM   29  C   UNK     0     -41.869   3.063  18.630  0.00  0.00     0.040 A 
HETATM   30  C   UNK     0     -42.941   2.190  18.816  0.00  0.00     0.010 A 
BRANCH  27  31
HETATM   31  O   UNK     0     -39.885   2.340  21.623  0.00  0.00    -0.358 OA
HETATM   32  H   UNK     0     -40.114   1.754  22.365  0.00  0.00     0.217 HD
ENDBRANCH  27  31
BRANCH  28  33
HETATM   33  O   UNK     0     -39.798   3.973  19.376  0.00  0.00    -0.358 OA
HETATM   34  H   UNK     0     -39.734   4.572  20.140  0.00  0.00     0.217 HD
ENDBRANCH  28  33
ENDBRANCH  24  25
ENDBRANCH  23  24
ENDBRANCH  22  23
ENDBRANCH   6  22
BRANCH   3  35
HETATM   35  O   UNK     0     -46.733  -0.276  14.471  0.00  0.00    -0.390 OA
HETATM   36  H   UNK     0     -46.065   0.421  14.353  0.00  0.00     0.210 HD
ENDBRANCH   3  35
BRANCH   5  37
HETATM   37  O   UNK     0     -42.976  -1.800  17.033  0.00  0.00    -0.388 OA
HETATM   38  H   UNK     0     -42.661  -1.204  16.331  0.00  0.00     0.210 HD
ENDBRANCH   5  37
BRANCH   4  39
HETATM   39  O   UNK     0     -44.544  -2.162  14.565  0.00  0.00    -0.390 OA
HETATM   40  H   UNK     0     -43.783  -1.799  14.079  0.00  0.00     0.210 HD
ENDBRANCH   4  39
TORSDOF 15
ENDMDL
MODEL 2
REMARK VINA RESULT:      -6.8      5.361      8.503
REMARK  15 active torsions:
REMARK  status: ('A' for Active; 'I' for Inactive)
REMARK    1  A    between atoms: O_2  and  C_18 
REMARK    2  A    between atoms: O_2  and  C_22 
REMARK    3  A    between atoms: O_4  and  C_14 
REMARK    4  A    between atoms: O_5  and  C_21 
REMARK    5  A    between atoms: O_5  and  C_25 
REMARK    6  A    between atoms: O_6  and  C_15 
REMARK    7  A    between atoms: O_7  and  C_16 
REMARK    8  A    between atoms: O_8  and  C_17 
REMARK    9  A    between atoms: O_9  and  C_19 
REMARK   10  A    between atoms: O_10  and  C_20 
REMARK   11  A    between atoms: O_11  and  C_30 
REMARK   12  A    between atoms: O_12  and  C_32 
REMARK   13  A    between atoms: C_13  and  C_22 
REMARK   14  A    between atoms: C_25  and  C_26 
REMARK   15  A    between atoms: C_26  and  C_27 
ROOT
HETATM    1  O   UNK     0     -48.426  -5.540  18.510  0.00  0.00    -0.348 OA
HETATM    2  C   UNK     0     -48.862  -5.492  17.150  0.00  0.00     0.180 C 
HETATM    3  C   UNK     0     -50.351  -5.836  17.068  0.00  0.00     0.180 C 
HETATM    4  C   UNK     0     -50.631  -7.195  17.708  0.00  0.00     0.183 C 
HETATM    5  C   UNK     0     -49.999  -7.294  19.096  0.00  0.00     0.204 C 
HETATM    6  C   UNK     0     -48.538  -6.844  19.075  0.00  0.00     0.291 C 
ENDROOT
BRANCH   2   7
HETATM    7  C   UNK     0     -48.576  -4.090  16.623  0.00  0.00     0.205 C 
BRANCH   7   8
HETATM    8  O   UNK     0     -47.635  -3.457  17.480  0.00  0.00    -0.356 OA
BRANCH   8   9
HETATM    9  C   UNK     0     -46.388  -3.254  16.824  0.00  0.00     0.291 C 
HETATM   10  O   UNK     0     -45.417  -2.637  17.676  0.00  0.00    -0.351 OA
HETATM   11  C   UNK     0     -45.760  -1.310  18.091  0.00  0.00     0.152 C 
HETATM   12  C   UNK     0     -45.938  -0.382  16.881  0.00  0.00     0.178 C 
HETATM   13  C   UNK     0     -44.645  -0.832  19.019  0.00  0.00     0.042 C 
HETATM   14  C   UNK     0     -46.957  -0.978  15.909  0.00  0.00     0.183 C 
HETATM   15  C   UNK     0     -46.600  -2.424  15.559  0.00  0.00     0.204 C 
BRANCH  12  16
HETATM   16  O   UNK     0     -46.418   0.891  17.302  0.00  0.00    -0.390 OA
HETATM   17  H   UNK     0     -47.206   1.106  16.773  0.00  0.00     0.210 HD
ENDBRANCH  12  16
BRANCH  14  18
HETATM   18  O   UNK     0     -46.991  -0.187  14.723  0.00  0.00    -0.390 OA
HETATM   19  H   UNK     0     -46.360  -0.575  14.092  0.00  0.00     0.210 HD
ENDBRANCH  14  18
BRANCH  15  20
HETATM   20  O   UNK     0     -45.386  -2.459  14.808  0.00  0.00    -0.388 OA
HETATM   21  H   UNK     0     -45.311  -3.343  14.411  0.00  0.00     0.210 HD
ENDBRANCH  15  20
ENDBRANCH   8   9
ENDBRANCH   7   8
ENDBRANCH   2   7
BRANCH   6  22
HETATM   22  O   UNK     0     -48.063  -6.828  20.421  0.00  0.00    -0.358 OA
BRANCH  22  23
HETATM   23  C   UNK     0     -47.163  -7.898  20.663  0.00  0.00     0.175 C 
BRANCH  23  24
HETATM   24  C   UNK     0     -46.449  -8.271  19.370  0.00  0.00     0.065 C 
BRANCH  24  25
HETATM   25  C   UNK     0     -45.091  -8.881  19.618  0.00  0.00    -0.053 A 
HETATM   26  C   UNK     0     -44.402  -9.499  18.576  0.00  0.00     0.046 A 
HETATM   27  C   UNK     0     -43.145 -10.060  18.806  0.00  0.00     0.099 A 
HETATM   28  C   UNK     0     -42.579 -10.004  20.079  0.00  0.00     0.098 A 
HETATM   29  C   UNK     0     -43.268  -9.386  21.122  0.00  0.00     0.040 A 
HETATM   30  C   UNK     0     -44.524  -8.823  20.893  0.00  0.00     0.010 A 
BRANCH  27  31
HETATM   31  O   UNK     0     -42.481 -10.660  17.779  0.00  0.00    -0.358 OA
HETATM   32  H   UNK     0     -42.587 -11.624  17.853  0.00  0.00     0.217 HD
ENDBRANCH  27  31
BRANCH  28  33
HETATM   33  O   UNK     0     -41.353 -10.549  20.317  0.00  0.00    -0.358 OA
HETATM   34  H   UNK     0     -41.314 -10.851  21.240  0.00  0.00     0.217 HD
ENDBRANCH  28  33
ENDBRANCH  24  25
ENDBRANCH  23  24
ENDBRANCH  22  23
ENDBRANCH   6  22
BRANCH   3  35
HETATM   35  O   UNK     0     -50.753  -5.866  15.701  0.00  0.00    -0.390 OA
HETATM   36  H   UNK     0     -51.340  -5.107  15.544  0.00  0.00     0.210 HD
ENDBRANCH   3  35
BRANCH   5  37
HETATM   37  O   UNK     0     -50.042  -8.649  19.542  0.00  0.00    -0.388 OA
HETATM   38  H   UNK     0     -49.765  -8.669  20.474  0.00  0.00     0.210 HD
ENDBRANCH   5  37
BRANCH   4  39
HETATM   39  O   UNK     0     -52.048  -7.348  17.819  0.00  0.00    -0.390 OA
HETATM   40  H   UNK     0     -52.227  -8.189  18.274  0.00  0.00     0.210 HD
ENDBRANCH   4  39
TORSDOF 15
ENDMDL
MODEL 3
REMARK VINA RESULT:      -6.7      1.521      1.916
REMARK  15 active torsions:
REMARK  status: ('A' for Active; 'I' for Inactive)
REMARK    1  A    between atoms: O_2  and  C_18 
REMARK    2  A    between atoms: O_2  and  C_22 
REMARK    3  A    between atoms: O_4  and  C_14 
REMARK    4  A    between atoms: O_5  and  C_21 
REMARK    5  A    between atoms: O_5  and  C_25 
REMARK    6  A    between atoms: O_6  and  C_15 
REMARK    7  A    between atoms: O_7  and  C_16 
REMARK    8  A    between atoms: O_8  and  C_17 
REMARK    9  A    between atoms: O_9  and  C_19 
REMARK   10  A    between atoms: O_10  and  C_20 
REMARK   11  A    between atoms: O_11  and  C_30 
REMARK   12  A    between atoms: O_12  and  C_32 
REMARK   13  A    between atoms: C_13  and  C_22 
REMARK   14  A    between atoms: C_25  and  C_26 
REMARK   15  A    between atoms: C_26  and  C_27 
ROOT
HETATM    1  O   UNK     0     -46.640  -1.003  17.932  0.00  0.00    -0.348 OA
HETATM    2  C   UNK     0     -47.190  -0.424  16.747  0.00  0.00     0.180 C 
HETATM    3  C   UNK     0     -46.928  -1.338  15.549  0.00  0.00     0.180 C 
HETATM    4  C   UNK     0     -45.433  -1.624  15.401  0.00  0.00     0.183 C 
HETATM    5  C   UNK     0     -44.822  -2.070  16.728  0.00  0.00     0.204 C 
HETATM    6  C   UNK     0     -45.222  -1.135  17.868  0.00  0.00     0.291 C 
ENDROOT
BRANCH   2   7
HETATM    7  C   UNK     0     -48.683  -0.219  16.986  0.00  0.00     0.205 C 
BRANCH   7   8
HETATM    8  O   UNK     0     -49.392  -1.332  16.461  0.00  0.00    -0.356 OA
BRANCH   8   9
HETATM    9  C   UNK     0     -50.065  -2.051  17.489  0.00  0.00     0.291 C 
HETATM   10  O   UNK     0     -49.419  -3.289  17.802  0.00  0.00    -0.351 OA
HETATM   11  C   UNK     0     -49.411  -4.235  16.728  0.00  0.00     0.152 C 
HETATM   12  C   UNK     0     -50.840  -4.583  16.288  0.00  0.00     0.178 C 
HETATM   13  C   UNK     0     -48.650  -5.464  17.221  0.00  0.00     0.042 C 
HETATM   14  C   UNK     0     -51.609  -3.307  15.945  0.00  0.00     0.183 C 
HETATM   15  C   UNK     0     -51.519  -2.290  17.084  0.00  0.00     0.204 C 
BRANCH  12  16
HETATM   16  O   UNK     0     -50.813  -5.410  15.128  0.00  0.00    -0.390 OA
HETATM   17  H   UNK     0     -50.605  -6.318  15.410  0.00  0.00     0.210 HD
ENDBRANCH  12  16
BRANCH  14  18
HETATM   18  O   UNK     0     -52.973  -3.634  15.693  0.00  0.00    -0.390 OA
HETATM   19  H   UNK     0     -52.995  -4.235  14.929  0.00  0.00     0.210 HD
ENDBRANCH  14  18
BRANCH  15  20
HETATM   20  O   UNK     0     -52.215  -2.780  18.231  0.00  0.00    -0.388 OA
HETATM   21  H   UNK     0     -52.489  -3.693  18.041  0.00  0.00     0.210 HD
ENDBRANCH  15  20
ENDBRANCH   8   9
ENDBRANCH   7   8
ENDBRANCH   2   7
BRANCH   6  22
HETATM   22  O   UNK     0     -44.734  -1.694  19.088  0.00  0.00    -0.358 OA
BRANCH  22  23
HETATM   23  C   UNK     0     -43.965  -0.750  19.817  0.00  0.00     0.175 C 
BRANCH  23  24
HETATM   24  C   UNK     0     -43.702   0.477  18.952  0.00  0.00     0.065 C 
BRANCH  24  25
HETATM   25  C   UNK     0     -42.606   1.350  19.512  0.00  0.00    -0.053 A 
HETATM   26  C   UNK     0     -41.901   0.944  20.645  0.00  0.00     0.046 A 
HETATM   27  C   UNK     0     -40.887   1.751  21.161  0.00  0.00     0.099 A 
HETATM   28  C   UNK     0     -40.579   2.964  20.545  0.00  0.00     0.098 A 
HETATM   29  C   UNK     0     -41.284   3.369  19.412  0.00  0.00     0.040 A 
HETATM   30  C   UNK     0     -42.297   2.563  18.895  0.00  0.00     0.010 A 
BRANCH  27  31
HETATM   31  O   UNK     0     -40.204   1.343  22.267  0.00  0.00    -0.358 OA
HETATM   32  H   UNK     0     -39.272   1.607  22.179  0.00  0.00     0.217 HD
ENDBRANCH  27  31
BRANCH  28  33
HETATM   33  O   UNK     0     -39.590   3.761  21.040  0.00  0.00    -0.358 OA
HETATM   34  H   UNK     0     -39.973   4.372  21.693  0.00  0.00     0.217 HD
ENDBRANCH  28  33
ENDBRANCH  24  25
ENDBRANCH  23  24
ENDBRANCH  22  23
ENDBRANCH   6  22
BRANCH   3  35
HETATM   35  O   UNK     0     -47.408  -0.710  14.363  0.00  0.00    -0.390 OA
HETATM   36  H   UNK     0     -48.355  -0.526  14.483  0.00  0.00     0.210 HD
ENDBRANCH   3  35
BRANCH   5  37
HETATM   37  O   UNK     0     -43.398  -2.061  16.621  0.00  0.00    -0.388 OA
HETATM   38  H   UNK     0     -43.069  -2.932  16.902  0.00  0.00     0.210 HD
ENDBRANCH   5  37
BRANCH   4  39
HETATM   39  O   UNK     0     -45.276  -2.661  14.431  0.00  0.00    -0.390 OA
HETATM   40  H   UNK     0     -45.568  -3.498  14.832  0.00  0.00     0.210 HD
ENDBRANCH   4  39
TORSDOF 15
ENDMDL
MODEL 4
REMARK VINA RESULT:      -6.7      2.760      5.362
REMARK  15 active torsions:
REMARK  status: ('A' for Active; 'I' for Inactive)
REMARK    1  A    between atoms: O_2  and  C_18 
REMARK    2  A    between atoms: O_2  and  C_22 
REMARK    3  A    between atoms: O_4  and  C_14 
REMARK    4  A    between atoms: O_5  and  C_21 
REMARK    5  A    between atoms: O_5  and  C_25 
REMARK    6  A    between atoms: O_6  and  C_15 
REMARK    7  A    between atoms: O_7  and  C_16 
REMARK    8  A    between atoms: O_8  and  C_17 
REMARK    9  A    between atoms: O_9  and  C_19 
REMARK   10  A    between atoms: O_10  and  C_20 
REMARK   11  A    between atoms: O_11  and  C_30 
REMARK   12  A    between atoms: O_12  and  C_32 
REMARK   13  A    between atoms: C_13  and  C_22 
REMARK   14  A    between atoms: C_25  and  C_26 
REMARK   15  A    between atoms: C_26  and  C_27 
ROOT
HETATM    1  O   UNK     0     -48.256   1.443  18.570  0.00  0.00    -0.348 OA
HETATM    2  C   UNK     0     -49.663   1.452  18.818  0.00  0.00     0.180 C 
HETATM    3  C   UNK     0     -50.079   2.801  19.410  0.00  0.00     0.180 C 
HETATM    4  C   UNK     0     -49.276   3.111  20.674  0.00  0.00     0.183 C 
HETATM    5  C   UNK     0     -47.779   2.918  20.439  0.00  0.00     0.204 C 
HETATM    6  C   UNK     0     -47.489   1.578  19.765  0.00  0.00     0.291 C 
ENDROOT
BRANCH   2   7
HETATM    7  C   UNK     0     -50.365   1.175  17.493  0.00  0.00     0.205 C 
BRANCH   7   8
HETATM    8  O   UNK     0     -50.198  -0.195  17.159  0.00  0.00    -0.356 OA
BRANCH   8   9
HETATM    9  C   UNK     0     -51.256  -0.661  16.328  0.00  0.00     0.291 C 
HETATM   10  O   UNK     0     -51.158  -2.062  16.053  0.00  0.00    -0.351 OA
HETATM   11  C   UNK     0     -49.998  -2.433  15.301  0.00  0.00     0.152 C 
HETATM   12  C   UNK     0     -49.967  -1.714  13.944  0.00  0.00     0.178 C 
HETATM   13  C   UNK     0     -50.035  -3.951  15.143  0.00  0.00     0.042 C 
HETATM   14  C   UNK     0     -50.080  -0.203  14.149  0.00  0.00     0.183 C 
HETATM   15  C   UNK     0     -51.283   0.142  15.029  0.00  0.00     0.204 C 
BRANCH  12  16
HETATM   16  O   UNK     0     -48.739  -1.980  13.273  0.00  0.00    -0.390 OA
HETATM   17  H   UNK     0     -48.856  -1.760  12.332  0.00  0.00     0.210 HD
ENDBRANCH  12  16
BRANCH  14  18
HETATM   18  O   UNK     0     -50.209   0.433  12.879  0.00  0.00    -0.390 OA
HETATM   19  H   UNK     0     -50.976   0.038  12.430  0.00  0.00     0.210 HD
ENDBRANCH  14  18
BRANCH  15  20
HETATM   20  O   UNK     0     -52.495  -0.177  14.345  0.00  0.00    -0.388 OA
HETATM   21  H   UNK     0     -52.649  -1.131  14.449  0.00  0.00     0.210 HD
ENDBRANCH  15  20
ENDBRANCH   8   9
ENDBRANCH   7   8
ENDBRANCH   2   7
BRANCH   6  22
HETATM   22  O   UNK     0     -46.096   1.535  19.451  0.00  0.00    -0.358 OA
BRANCH  22  23
HETATM   23  C   UNK     0     -45.499   0.336  19.920  0.00  0.00     0.175 C 
BRANCH  23  24
HETATM   24  C   UNK     0     -44.413  -0.111  18.947  0.00  0.00     0.065 C 
BRANCH  24  25
HETATM   25  C   UNK     0     -44.976  -0.860  17.764  0.00  0.00    -0.053 A 
HETATM   26  C   UNK     0     -44.211  -1.014  16.608  0.00  0.00     0.046 A 
HETATM   27  C   UNK     0     -44.731  -1.707  15.515  0.00  0.00     0.099 A 
HETATM   28  C   UNK     0     -46.016  -2.246  15.578  0.00  0.00     0.098 A 
HETATM   29  C   UNK     0     -46.781  -2.092  16.734  0.00  0.00     0.040 A 
HETATM   30  C   UNK     0     -46.261  -1.399  17.827  0.00  0.00     0.010 A 
BRANCH  27  31
HETATM   31  O   UNK     0     -43.974  -1.853  14.392  0.00  0.00    -0.358 OA
HETATM   32  H   UNK     0     -43.731  -0.972  14.057  0.00  0.00     0.217 HD
ENDBRANCH  27  31
BRANCH  28  33
HETATM   33  O   UNK     0     -46.535  -2.926  14.517  0.00  0.00    -0.358 OA
HETATM   34  H   UNK     0     -47.499  -2.995  14.626  0.00  0.00     0.217 HD
ENDBRANCH  28  33
ENDBRANCH  24  25
ENDBRANCH  23  24
ENDBRANCH  22  23
ENDBRANCH   6  22
BRANCH   3  35
HETATM   35  O   UNK     0     -51.467   2.766  19.729  0.00  0.00    -0.390 OA
HETATM   36  H   UNK     0     -51.605   2.072  20.396  0.00  0.00     0.210 HD
ENDBRANCH   3  35
BRANCH   5  37
HETATM   37  O   UNK     0     -47.095   2.946  21.692  0.00  0.00    -0.388 OA
HETATM   38  H   UNK     0     -46.943   2.027  21.973  0.00  0.00     0.210 HD
ENDBRANCH   5  37
BRANCH   4  39
HETATM   39  O   UNK     0     -49.531   4.469  21.037  0.00  0.00    -0.390 OA
HETATM   40  H   UNK     0     -48.734   4.821  21.469  0.00  0.00     0.210 HD
ENDBRANCH   4  39
TORSDOF 15
ENDMDL
MODEL 5
REMARK VINA RESULT:      -6.5      3.132      8.005
REMARK  15 active torsions:
REMARK  status: ('A' for Active; 'I' for Inactive)
REMARK    1  A    between atoms: O_2  and  C_18 
REMARK    2  A    between atoms: O_2  and  C_22 
REMARK    3  A    between atoms: O_4  and  C_14 
REMARK    4  A    between atoms: O_5  and  C_21 
REMARK    5  A    between atoms: O_5  and  C_25 
REMARK    6  A    between atoms: O_6  and  C_15 
REMARK    7  A    between atoms: O_7  and  C_16 
REMARK    8  A    between atoms: O_8  and  C_17 
REMARK    9  A    between atoms: O_9  and  C_19 
REMARK   10  A    between atoms: O_10  and  C_20 
REMARK   11  A    between atoms: O_11  and  C_30 
REMARK   12  A    between atoms: O_12  and  C_32 
REMARK   13  A    between atoms: C_13  and  C_22 
REMARK   14  A    between atoms: C_25  and  C_26 
REMARK   15  A    between atoms: C_26  and  C_27 
ROOT
HETATM    1  O   UNK     0     -49.756   0.553  18.953  0.00  0.00    -0.348 OA
HETATM    2  C   UNK     0     -48.731   1.531  18.770  0.00  0.00     0.180 C 
HETATM    3  C   UNK     0     -48.833   2.603  19.857  0.00  0.00     0.180 C 
HETATM    4  C   UNK     0     -50.226   3.234  19.868  0.00  0.00     0.183 C 
HETATM    5  C   UNK     0     -51.317   2.165  19.880  0.00  0.00     0.204 C 
HETATM    6  C   UNK     0     -51.066   1.101  18.813  0.00  0.00     0.291 C 
ENDROOT
BRANCH   2   7
HETATM    7  C   UNK     0     -47.390   0.805  18.816  0.00  0.00     0.205 C 
BRANCH   7   8
HETATM    8  O   UNK     0     -47.269  -0.016  17.663  0.00  0.00    -0.356 OA
BRANCH   8   9
HETATM    9  C   UNK     0     -47.046  -1.377  18.015  0.00  0.00     0.291 C 
HETATM   10  O   UNK     0     -45.774  -1.578  18.639  0.00  0.00    -0.351 OA
HETATM   11  C   UNK     0     -44.654  -1.298  17.793  0.00  0.00     0.152 C 
HETATM   12  C   UNK     0     -44.674  -2.184  16.539  0.00  0.00     0.178 C 
HETATM   13  C   UNK     0     -43.396  -1.520  18.630  0.00  0.00     0.042 C 
HETATM   14  C   UNK     0     -46.013  -2.037  15.815  0.00  0.00     0.183 C 
HETATM   15  C   UNK     0     -47.183  -2.259  16.775  0.00  0.00     0.204 C 
BRANCH  12  16
HETATM   16  O   UNK     0     -43.639  -1.794  15.642  0.00  0.00    -0.390 OA
HETATM   17  H   UNK     0     -42.790  -2.088  16.015  0.00  0.00     0.210 HD
ENDBRANCH  12  16
BRANCH  14  18
HETATM   18  O   UNK     0     -46.075  -2.981  14.748  0.00  0.00    -0.390 OA
HETATM   19  H   UNK     0     -46.069  -2.481  13.914  0.00  0.00     0.210 HD
ENDBRANCH  14  18
BRANCH  15  20
HETATM   20  O   UNK     0     -47.205  -3.620  17.210  0.00  0.00    -0.388 OA
HETATM   21  H   UNK     0     -47.579  -3.636  18.107  0.00  0.00     0.210 HD
ENDBRANCH  15  20
ENDBRANCH   8   9
ENDBRANCH   7   8
ENDBRANCH   2   7
BRANCH   6  22
HETATM   22  O   UNK     0     -52.040   0.070  18.981  0.00  0.00    -0.358 OA
BRANCH  22  23
HETATM   23  C   UNK     0     -51.868  -0.963  18.024  0.00  0.00     0.175 C 
BRANCH  23  24
HETATM   24  C   UNK     0     -51.978  -0.385  16.618  0.00  0.00     0.065 C 
BRANCH  24  25
HETATM   25  C   UNK     0     -51.027  -1.044  15.649  0.00  0.00    -0.053 A 
HETATM   26  C   UNK     0     -50.081  -0.278  14.970  0.00  0.00     0.046 A 
HETATM   27  C   UNK     0     -49.200  -0.889  14.076  0.00  0.00     0.099 A 
HETATM   28  C   UNK     0     -49.267  -2.265  13.862  0.00  0.00     0.098 A 
HETATM   29  C   UNK     0     -50.214  -3.031  14.541  0.00  0.00     0.040 A 
HETATM   30  C   UNK     0     -51.094  -2.422  15.436  0.00  0.00     0.010 A 
BRANCH  27  31
HETATM   31  O   UNK     0     -48.279  -0.130  13.420  0.00  0.00    -0.358 OA
HETATM   32  H   UNK     0     -47.617  -0.716  13.014  0.00  0.00     0.217 HD
ENDBRANCH  27  31
BRANCH  28  33
HETATM   33  O   UNK     0     -48.413  -2.873  12.991  0.00  0.00    -0.358 OA
HETATM   34  H   UNK     0     -48.015  -3.647  13.426  0.00  0.00     0.217 HD
ENDBRANCH  28  33
ENDBRANCH  24  25
ENDBRANCH  23  24
ENDBRANCH  22  23
ENDBRANCH   6  22
BRANCH   3  35
HETATM   35  O   UNK     0     -47.859   3.614  19.614  0.00  0.00    -0.390 OA
HETATM   36  H   UNK     0     -48.156   4.430  20.052  0.00  0.00     0.210 HD
ENDBRANCH   3  35
BRANCH   5  37
HETATM   37  O   UNK     0     -52.581   2.774  19.615  0.00  0.00    -0.388 OA
HETATM   38  H   UNK     0     -52.899   3.179  20.440  0.00  0.00     0.210 HD
ENDBRANCH   5  37
BRANCH   4  39
HETATM   39  O   UNK     0     -50.336   4.040  21.043  0.00  0.00    -0.390 OA
HETATM   40  H   UNK     0     -49.949   3.547  21.787  0.00  0.00     0.210 HD
ENDBRANCH   4  39
TORSDOF 15
ENDMDL
MODEL 6
REMARK VINA RESULT:      -6.4      3.258      4.355
REMARK  15 active torsions:
REMARK  status: ('A' for Active; 'I' for Inactive)
REMARK    1  A    between atoms: O_2  and  C_18 
REMARK    2  A    between atoms: O_2  and  C_22 
REMARK    3  A    between atoms: O_4  and  C_14 
REMARK    4  A    between atoms: O_5  and  C_21 
REMARK    5  A    between atoms: O_5  and  C_25 
REMARK    6  A    between atoms: O_6  and  C_15 
REMARK    7  A    between atoms: O_7  and  C_16 
REMARK    8  A    between atoms: O_8  and  C_17 
REMARK    9  A    between atoms: O_9  and  C_19 
REMARK   10  A    between atoms: O_10  and  C_20 
REMARK   11  A    between atoms: O_11  and  C_30 
REMARK   12  A    between atoms: O_12  and  C_32 
REMARK   13  A    between atoms: C_13  and  C_22 
REMARK   14  A    between atoms: C_25  and  C_26 
REMARK   15  A    between atoms: C_26  and  C_27 
ROOT
HETATM    1  O   UNK     0     -47.203  -2.669  17.769  0.00  0.00    -0.348 OA
HETATM    2  C   UNK     0     -48.490  -2.184  17.381  0.00  0.00     0.180 C 
HETATM    3  C   UNK     0     -48.786  -2.591  15.936  0.00  0.00     0.180 C 
HETATM    4  C   UNK     0     -47.685  -2.100  14.996  0.00  0.00     0.183 C 
HETATM    5  C   UNK     0     -46.301  -2.472  15.524  0.00  0.00     0.204 C 
HETATM    6  C   UNK     0     -46.148  -2.099  16.998  0.00  0.00     0.291 C 
ENDROOT
BRANCH   2   7
HETATM    7  C   UNK     0     -49.513  -2.763  18.353  0.00  0.00     0.205 C 
BRANCH   7   8
HETATM    8  O   UNK     0     -49.061  -4.035  18.796  0.00  0.00    -0.356 OA
BRANCH   8   9
HETATM    9  C   UNK     0     -50.011  -5.055  18.505  0.00  0.00     0.291 C 
HETATM   10  O   UNK     0     -50.480  -5.716  19.685  0.00  0.00    -0.351 OA
HETATM   11  C   UNK     0     -49.468  -6.440  20.393  0.00  0.00     0.152 C 
HETATM   12  C   UNK     0     -48.837  -7.520  19.504  0.00  0.00     0.178 C 
HETATM   13  C   UNK     0     -50.132  -7.036  21.633  0.00  0.00     0.042 C 
HETATM   14  C   UNK     0     -48.318  -6.895  18.208  0.00  0.00     0.183 C 
HETATM   15  C   UNK     0     -49.405  -6.060  17.528  0.00  0.00     0.204 C 
BRANCH  12  16
HETATM   16  O   UNK     0     -47.737  -8.130  20.173  0.00  0.00    -0.390 OA
HETATM   17  H   UNK     0     -46.920  -7.708  19.859  0.00  0.00     0.210 HD
ENDBRANCH  12  16
BRANCH  14  18
HETATM   18  O   UNK     0     -47.880  -7.930  17.331  0.00  0.00    -0.390 OA
HETATM   19  H   UNK     0     -48.673  -8.343  16.946  0.00  0.00     0.210 HD
ENDBRANCH  14  18
BRANCH  15  20
HETATM   20  O   UNK     0     -50.457  -6.911  17.071  0.00  0.00    -0.388 OA
HETATM   21  H   UNK     0     -51.082  -7.027  17.806  0.00  0.00     0.210 HD
ENDBRANCH  15  20
ENDBRANCH   8   9
ENDBRANCH   7   8
ENDBRANCH   2   7
BRANCH   6  22
HETATM   22  O   UNK     0     -44.892  -2.604  17.452  0.00  0.00    -0.358 OA
BRANCH  22  23
HETATM   23  C   UNK     0     -43.961  -1.555  17.667  0.00  0.00     0.175 C 
BRANCH  23  24
HETATM   24  C   UNK     0     -44.222  -0.905  19.021  0.00  0.00     0.065 C 
BRANCH  24  25
HETATM   25  C   UNK     0     -43.326   0.283  19.270  0.00  0.00    -0.053 A 
HETATM   26  C   UNK     0     -42.335   0.217  20.248  0.00  0.00     0.046 A 
HETATM   27  C   UNK     0     -41.505   1.314  20.476  0.00  0.00     0.099 A 
HETATM   28  C   UNK     0     -41.668   2.479  19.727  0.00  0.00     0.098 A 
HETATM   29  C   UNK     0     -42.659   2.546  18.748  0.00  0.00     0.040 A 
HETATM   30  C   UNK     0     -43.488   1.448  18.518  0.00  0.00     0.010 A 
BRANCH  27  31
HETATM   31  O   UNK     0     -40.539   1.237  21.434  0.00  0.00    -0.358 OA
HETATM   32  H   UNK     0     -40.420   2.115  21.836  0.00  0.00     0.217 HD
ENDBRANCH  27  31
BRANCH  28  33
HETATM   33  O   UNK     0     -40.863   3.558  19.941  0.00  0.00    -0.358 OA
HETATM   34  H   UNK     0     -40.820   4.087  19.126  0.00  0.00     0.217 HD
ENDBRANCH  28  33
ENDBRANCH  24  25
ENDBRANCH  23  24
ENDBRANCH  22  23
ENDBRANCH   6  22
BRANCH   3  35
HETATM   35  O   UNK     0     -50.034  -2.031  15.535  0.00  0.00    -0.390 OA
HETATM   36  H   UNK     0     -50.739  -2.642  15.809  0.00  0.00     0.210 HD
ENDBRANCH   3  35
BRANCH   5  37
HETATM   37  O   UNK     0     -45.305  -1.770  14.780  0.00  0.00    -0.388 OA
HETATM   38  H   UNK     0     -45.648  -0.882  14.581  0.00  0.00     0.210 HD
ENDBRANCH   5  37
BRANCH   4  39
HETATM   39  O   UNK     0     -47.888  -2.710  13.720  0.00  0.00    -0.390 OA
HETATM   40  H   UNK     0     -48.846  -2.819  13.585  0.00  0.00     0.210 HD
ENDBRANCH   4  39
TORSDOF 15
ENDMDL
MODEL 7
REMARK VINA RESULT:      -6.4      2.494      5.534
REMARK  15 active torsions:
REMARK  status: ('A' for Active; 'I' for Inactive)
REMARK    1  A    between atoms: O_2  and  C_18 
REMARK    2  A    between atoms: O_2  and  C_22 
REMARK    3  A    between atoms: O_4  and  C_14 
REMARK    4  A    between atoms: O_5  and  C_21 
REMARK    5  A    between atoms: O_5  and  C_25 
REMARK    6  A    between atoms: O_6  and  C_15 
REMARK    7  A    between atoms: O_7  and  C_16 
REMARK    8  A    between atoms: O_8  and  C_17 
REMARK    9  A    between atoms: O_9  and  C_19 
REMARK   10  A    between atoms: O_10  and  C_20 
REMARK   11  A    between atoms: O_11  and  C_30 
REMARK   12  A    between atoms: O_12  and  C_32 
REMARK   13  A    between atoms: C_13  and  C_22 
REMARK   14  A    between atoms: C_25  and  C_26 
REMARK   15  A    between atoms: C_26  and  C_27 
ROOT
HETATM    1  O   UNK     0     -48.322  -1.678  16.923  0.00  0.00    -0.348 OA
HETATM    2  C   UNK     0     -49.615  -2.199  17.234  0.00  0.00     0.180 C 
HETATM    3  C   UNK     0     -49.912  -3.417  16.356  0.00  0.00     0.180 C 
HETATM    4  C   UNK     0     -49.784  -3.062  14.874  0.00  0.00     0.183 C 
HETATM    5  C   UNK     0     -48.467  -2.339  14.591  0.00  0.00     0.204 C 
HETATM    6  C   UNK     0     -48.234  -1.200  15.582  0.00  0.00     0.291 C 
ENDROOT
BRANCH   2   7
HETATM    7  C   UNK     0     -49.622  -2.557  18.717  0.00  0.00     0.205 C 
BRANCH   7   8
HETATM    8  O   UNK     0     -48.620  -1.799  19.380  0.00  0.00    -0.356 OA
BRANCH   8   9
HETATM    9  C   UNK     0     -49.180  -0.968  20.391  0.00  0.00     0.291 C 
HETATM   10  O   UNK     0     -49.890   0.150  19.848  0.00  0.00    -0.351 OA
HETATM   11  C   UNK     0     -49.068   1.070  19.122  0.00  0.00     0.152 C 
HETATM   12  C   UNK     0     -47.960   1.644  20.016  0.00  0.00     0.178 C 
HETATM   13  C   UNK     0     -49.990   2.161  18.583  0.00  0.00     0.042 C 
HETATM   14  C   UNK     0     -47.156   0.508  20.650  0.00  0.00     0.183 C 
HETATM   15  C   UNK     0     -48.079  -0.498  21.340  0.00  0.00     0.204 C 
BRANCH  12  16
HETATM   16  O   UNK     0     -47.067   2.442  19.245  0.00  0.00    -0.390 OA
HETATM   17  H   UNK     0     -47.586   2.902  18.562  0.00  0.00     0.210 HD
ENDBRANCH  12  16
BRANCH  14  18
HETATM   18  O   UNK     0     -46.239   1.053  21.595  0.00  0.00    -0.390 OA
HETATM   19  H   UNK     0     -46.760   1.481  22.296  0.00  0.00     0.210 HD
ENDBRANCH  14  18
BRANCH  15  20
HETATM   20  O   UNK     0     -48.709   0.113  22.468  0.00  0.00    -0.388 OA
HETATM   21  H   UNK     0     -48.774  -0.558  23.168  0.00  0.00     0.210 HD
ENDBRANCH  15  20
ENDBRANCH   8   9
ENDBRANCH   7   8
ENDBRANCH   2   7
BRANCH   6  22
HETATM   22  O   UNK     0     -46.929  -0.670  15.344  0.00  0.00    -0.358 OA
BRANCH  22  23
HETATM   23  C   UNK     0     -45.927  -1.652  15.555  0.00  0.00     0.175 C 
BRANCH  23  24
HETATM   24  C   UNK     0     -44.566  -0.978  15.689  0.00  0.00     0.065 C 
BRANCH  24  25
HETATM   25  C   UNK     0     -44.155  -0.797  17.129  0.00  0.00    -0.053 A 
HETATM   26  C   UNK     0     -44.308   0.444  17.747  0.00  0.00     0.046 A 
HETATM   27  C   UNK     0     -43.929   0.611  19.080  0.00  0.00     0.099 A 
HETATM   28  C   UNK     0     -43.396  -0.463  19.793  0.00  0.00     0.098 A 
HETATM   29  C   UNK     0     -43.243  -1.703  19.174  0.00  0.00     0.040 A 
HETATM   30  C   UNK     0     -43.622  -1.871  17.843  0.00  0.00     0.010 A 
BRANCH  27  31
HETATM   31  O   UNK     0     -44.085   1.827  19.673  0.00  0.00    -0.358 OA
HETATM   32  H   UNK     0     -44.987   1.889  20.034  0.00  0.00     0.217 HD
ENDBRANCH  27  31
BRANCH  28  33
HETATM   33  O   UNK     0     -43.022  -0.312  21.095  0.00  0.00    -0.358 OA
HETATM   34  H   UNK     0     -43.064   0.631  21.329  0.00  0.00     0.217 HD
ENDBRANCH  28  33
ENDBRANCH  24  25
ENDBRANCH  23  24
ENDBRANCH  22  23
ENDBRANCH   6  22
BRANCH   3  35
HETATM   35  O   UNK     0     -51.236  -3.875  16.618  0.00  0.00    -0.390 OA
HETATM   36  H   UNK     0     -51.762  -3.116  16.920  0.00  0.00     0.210 HD
ENDBRANCH   3  35
BRANCH   5  37
HETATM   37  O   UNK     0     -48.503  -1.786  13.275  0.00  0.00    -0.388 OA
HETATM   38  H   UNK     0     -48.114  -0.896  13.312  0.00  0.00     0.210 HD
ENDBRANCH   5  37
BRANCH   4  39
HETATM   39  O   UNK     0     -49.830  -4.277  14.124  0.00  0.00    -0.390 OA
HETATM   40  H   UNK     0     -49.376  -4.127  13.277  0.00  0.00     0.210 HD
ENDBRANCH   4  39
TORSDOF 15
ENDMDL
MODEL 8
REMARK VINA RESULT:      -6.4      2.271      3.972
REMARK  15 active torsions:
REMARK  status: ('A' for Active; 'I' for Inactive)
REMARK    1  A    between atoms: O_2  and  C_18 
REMARK    2  A    between atoms: O_2  and  C_22 
REMARK    3  A    between atoms: O_4  and  C_14 
REMARK    4  A    between atoms: O_5  and  C_21 
REMARK    5  A    between atoms: O_5  and  C_25 
REMARK    6  A    between atoms: O_6  and  C_15 
REMARK    7  A    between atoms: O_7  and  C_16 
REMARK    8  A    between atoms: O_8  and  C_17 
REMARK    9  A    between atoms: O_9  and  C_19 
REMARK   10  A    between atoms: O_10  and  C_20 
REMARK   11  A    between atoms: O_11  and  C_30 
REMARK   12  A    between atoms: O_12  and  C_32 
REMARK   13  A    between atoms: C_13  and  C_22 
REMARK   14  A    between atoms: C_25  and  C_26 
REMARK   15  A    between atoms: C_26  and  C_27 
ROOT
HETATM    1  O   UNK     0     -47.551   0.183  19.311  0.00  0.00    -0.348 OA
HETATM    2  C   UNK     0     -48.905  -0.222  19.523  0.00  0.00     0.180 C 
HETATM    3  C   UNK     0     -49.855   0.730  18.793  0.00  0.00     0.180 C 
HETATM    4  C   UNK     0     -49.619   2.175  19.232  0.00  0.00     0.183 C 
HETATM    5  C   UNK     0     -48.135   2.536  19.172  0.00  0.00     0.204 C 
HETATM    6  C   UNK     0     -47.276   1.472  19.854  0.00  0.00     0.291 C 
ENDROOT
BRANCH   2   7
HETATM    7  C   UNK     0     -49.041  -1.655  19.016  0.00  0.00     0.205 C 
BRANCH   7   8
HETATM    8  O   UNK     0     -49.528  -1.629  17.682  0.00  0.00    -0.356 OA
BRANCH   8   9
HETATM    9  C   UNK     0     -48.903  -2.625  16.881  0.00  0.00     0.291 C 
HETATM   10  O   UNK     0     -47.544  -2.301  16.569  0.00  0.00    -0.351 OA
HETATM   11  C   UNK     0     -47.391  -1.127  15.764  0.00  0.00     0.152 C 
HETATM   12  C   UNK     0     -48.127  -1.276  14.425  0.00  0.00     0.178 C 
HETATM   13  C   UNK     0     -45.891  -0.912  15.571  0.00  0.00     0.042 C 
HETATM   14  C   UNK     0     -49.592  -1.636  14.670  0.00  0.00     0.183 C 
HETATM   15  C   UNK     0     -49.712  -2.843  15.603  0.00  0.00     0.204 C 
BRANCH  12  16
HETATM   16  O   UNK     0     -48.087  -0.050  13.701  0.00  0.00    -0.390 OA
HETATM   17  H   UNK     0     -48.719  -0.113  12.965  0.00  0.00     0.210 HD
ENDBRANCH  12  16
BRANCH  14  18
HETATM   18  O   UNK     0     -50.219  -1.925  13.422  0.00  0.00    -0.390 OA
HETATM   19  H   UNK     0     -51.175  -1.997  13.584  0.00  0.00     0.210 HD
ENDBRANCH  14  18
BRANCH  15  20
HETATM   20  O   UNK     0     -49.201  -4.010  14.958  0.00  0.00    -0.388 OA
HETATM   21  H   UNK     0     -48.791  -4.568  15.641  0.00  0.00     0.210 HD
ENDBRANCH  15  20
ENDBRANCH   8   9
ENDBRANCH   7   8
ENDBRANCH   2   7
BRANCH   6  22
HETATM   22  O   UNK     0     -45.905   1.805  19.633  0.00  0.00    -0.358 OA
BRANCH  22  23
HETATM   23  C   UNK     0     -45.164   0.677  19.194  0.00  0.00     0.175 C 
BRANCH  23  24
HETATM   24  C   UNK     0     -43.981   1.136  18.350  0.00  0.00     0.065 C 
BRANCH  24  25
HETATM   25  C   UNK     0     -42.809   1.575  19.194  0.00  0.00    -0.053 A 
HETATM   26  C   UNK     0     -42.096   2.724  18.855  0.00  0.00     0.046 A 
HETATM   27  C   UNK     0     -41.015   3.130  19.637  0.00  0.00     0.099 A 
HETATM   28  C   UNK     0     -40.646   2.386  20.757  0.00  0.00     0.098 A 
HETATM   29  C   UNK     0     -41.359   1.237  21.096  0.00  0.00     0.040 A 
HETATM   30  C   UNK     0     -42.441   0.830  20.316  0.00  0.00     0.010 A 
BRANCH  27  31
HETATM   31  O   UNK     0     -40.327   4.256  19.296  0.00  0.00    -0.358 OA
HETATM   32  H   UNK     0     -40.203   4.803  20.091  0.00  0.00     0.217 HD
ENDBRANCH  27  31
BRANCH  28  33
HETATM   33  O   UNK     0     -39.591   2.773  21.529  0.00  0.00    -0.358 OA
HETATM   34  H   UNK     0     -39.108   3.483  21.072  0.00  0.00     0.217 HD
ENDBRANCH  28  33
ENDBRANCH  24  25
ENDBRANCH  23  24
ENDBRANCH  22  23
ENDBRANCH   6  22
BRANCH   3  35
HETATM   35  O   UNK     0     -51.202   0.364  19.080  0.00  0.00    -0.390 OA
HETATM   36  H   UNK     0     -51.683   0.304  18.237  0.00  0.00     0.210 HD
ENDBRANCH   3  35
BRANCH   5  37
HETATM   37  O   UNK     0     -47.921   3.779  19.840  0.00  0.00    -0.388 OA
HETATM   38  H   UNK     0     -47.348   4.329  19.279  0.00  0.00     0.210 HD
ENDBRANCH   5  37
BRANCH   4  39
HETATM   39  O   UNK     0     -50.352   3.030  18.352  0.00  0.00    -0.390 OA
HETATM   40  H   UNK     0     -50.006   2.906  17.452  0.00  0.00     0.210 HD
ENDBRANCH   4  39
TORSDOF 15
ENDMDL
MODEL 9
REMARK VINA RESULT:      -6.3      2.714      4.570
REMARK  15 active torsions:
REMARK  status: ('A' for Active; 'I' for Inactive)
REMARK    1  A    between atoms: O_2  and  C_18 
REMARK    2  A    between atoms: O_2  and  C_22 
REMARK    3  A    between atoms: O_4  and  C_14 
REMARK    4  A    between atoms: O_5  and  C_21 
REMARK    5  A    between atoms: O_5  and  C_25 
REMARK    6  A    between atoms: O_6  and  C_15 
REMARK    7  A    between atoms: O_7  and  C_16 
REMARK    8  A    between atoms: O_8  and  C_17 
REMARK    9  A    between atoms: O_9  and  C_19 
REMARK   10  A    between atoms: O_10  and  C_20 
REMARK   11  A    between atoms: O_11  and  C_30 
REMARK   12  A    between atoms: O_12  and  C_32 
REMARK   13  A    between atoms: C_13  and  C_22 
REMARK   14  A    between atoms: C_25  and  C_26 
REMARK   15  A    between atoms: C_26  and  C_27 
ROOT
HETATM    1  O   UNK     0     -48.858  -1.364  16.600  0.00  0.00    -0.348 OA
HETATM    2  C   UNK     0     -49.603  -0.656  15.608  0.00  0.00     0.180 C 
HETATM    3  C   UNK     0     -49.788  -1.535  14.369  0.00  0.00     0.180 C 
HETATM    4  C   UNK     0     -48.438  -2.012  13.834  0.00  0.00     0.183 C 
HETATM    5  C   UNK     0     -47.579  -2.604  14.951  0.00  0.00     0.204 C 
HETATM    6  C   UNK     0     -47.536  -1.683  16.169  0.00  0.00     0.291 C 
ENDROOT
BRANCH   2   7
HETATM    7  C   UNK     0     -50.940  -0.263  16.228  0.00  0.00     0.205 C 
BRANCH   7   8
HETATM    8  O   UNK     0     -51.234   1.082  15.879  0.00  0.00    -0.356 OA
BRANCH   8   9
HETATM    9  C   UNK     0     -52.444   1.173  15.134  0.00  0.00     0.291 C 
HETATM   10  O   UNK     0     -52.222   1.576  13.779  0.00  0.00    -0.351 OA
HETATM   11  C   UNK     0     -51.683   2.895  13.640  0.00  0.00     0.152 C 
HETATM   12  C   UNK     0     -52.617   3.941  14.265  0.00  0.00     0.178 C 
HETATM   13  C   UNK     0     -51.471   3.135  12.147  0.00  0.00     0.042 C 
HETATM   14  C   UNK     0     -52.916   3.576  15.719  0.00  0.00     0.183 C 
HETATM   15  C   UNK     0     -53.408   2.132  15.831  0.00  0.00     0.204 C 
BRANCH  12  16
HETATM   16  O   UNK     0     -52.001   5.225  14.247  0.00  0.00    -0.390 OA
HETATM   17  H   UNK     0     -51.861   5.506  15.168  0.00  0.00     0.210 HD
ENDBRANCH  12  16
BRANCH  14  18
HETATM   18  O   UNK     0     -53.906   4.466  16.231  0.00  0.00    -0.390 OA
HETATM   19  H   UNK     0     -54.137   4.163  17.126  0.00  0.00     0.210 HD
ENDBRANCH  14  18
BRANCH  15  20
HETATM   20  O   UNK     0     -54.683   2.000  15.201  0.00  0.00    -0.388 OA
HETATM   21  H   UNK     0     -54.753   2.699  14.530  0.00  0.00     0.210 HD
ENDBRANCH  15  20
ENDBRANCH   8   9
ENDBRANCH   7   8
ENDBRANCH   2   7
BRANCH   6  22
HETATM   22  O   UNK     0     -46.840  -2.364  17.212  0.00  0.00    -0.358 OA
BRANCH  22  23
HETATM   23  C   UNK     0     -45.474  -1.981  17.257  0.00  0.00     0.175 C 
BRANCH  23  24
HETATM   24  C   UNK     0     -45.370  -0.476  17.480  0.00  0.00     0.065 C 
BRANCH  24  25
HETATM   25  C   UNK     0     -44.455  -0.129  18.629  0.00  0.00    -0.053 A 
HETATM   26  C   UNK     0     -44.368  -0.975  19.733  0.00  0.00     0.046 A 
HETATM   27  C   UNK     0     -43.521  -0.654  20.794  0.00  0.00     0.099 A 
HETATM   28  C   UNK     0     -42.761   0.515  20.750  0.00  0.00     0.098 A 
HETATM   29  C   UNK     0     -42.847   1.361  19.645  0.00  0.00     0.040 A 
HETATM   30  C   UNK     0     -43.693   1.040  18.584  0.00  0.00     0.010 A 
BRANCH  27  31
HETATM   31  O   UNK     0     -43.444  -1.490  21.867  0.00  0.00    -0.358 OA
HETATM   32  H   UNK     0     -42.532  -1.820  21.946  0.00  0.00     0.217 HD
ENDBRANCH  27  31
BRANCH  28  33
HETATM   33  O   UNK     0     -41.929   0.839  21.780  0.00  0.00    -0.358 OA
HETATM   34  H   UNK     0     -41.933   1.805  21.897  0.00  0.00     0.217 HD
ENDBRANCH  28  33
ENDBRANCH  24  25
ENDBRANCH  23  24
ENDBRANCH  22  23
ENDBRANCH   6  22
BRANCH   3  35
HETATM   35  O   UNK     0     -50.459  -0.788  13.358  0.00  0.00    -0.390 OA
HETATM   36  H   UNK     0     -50.885  -1.418  12.752  0.00  0.00     0.210 HD
ENDBRANCH   3  35
BRANCH   5  37
HETATM   37  O   UNK     0     -46.244  -2.782  14.478  0.00  0.00    -0.388 OA
HETATM   38  H   UNK     0     -45.674  -2.137  14.932  0.00  0.00     0.210 HD
ENDBRANCH   5  37
BRANCH   4  39
HETATM   39  O   UNK     0     -48.683  -3.011  12.842  0.00  0.00    -0.390 OA
HETATM   40  H   UNK     0     -49.024  -3.805  13.289  0.00  0.00     0.210 HD
ENDBRANCH   4  39
TORSDOF 15
ENDMDL
MODEL 10
REMARK VINA RESULT:      -6.3      3.278     11.310
REMARK  15 active torsions:
REMARK  status: ('A' for Active; 'I' for Inactive)
REMARK    1  A    between atoms: O_2  and  C_18 
REMARK    2  A    between atoms: O_2  and  C_22 
REMARK    3  A    between atoms: O_4  and  C_14 
REMARK    4  A    between atoms: O_5  and  C_21 
REMARK    5  A    between atoms: O_5  and  C_25 
REMARK    6  A    between atoms: O_6  and  C_15 
REMARK    7  A    between atoms: O_7  and  C_16 
REMARK    8  A    between atoms: O_8  and  C_17 
REMARK    9  A    between atoms: O_9  and  C_19 
REMARK   10  A    between atoms: O_10  and  C_20 
REMARK   11  A    between atoms: O_11  and  C_30 
REMARK   12  A    between atoms: O_12  and  C_32 
REMARK   13  A    between atoms: C_13  and  C_22 
REMARK   14  A    between atoms: C_25  and  C_26 
REMARK   15  A    between atoms: C_26  and  C_27 
ROOT
HETATM    1  O   UNK     0     -41.172   2.198  20.447  0.00  0.00    -0.348 OA
HETATM    2  C   UNK     0     -40.689   3.458  20.916  0.00  0.00     0.180 C 
HETATM    3  C   UNK     0     -39.631   3.239  22.000  0.00  0.00     0.180 C 
HETATM    4  C   UNK     0     -40.188   2.383  23.139  0.00  0.00     0.183 C 
HETATM    5  C   UNK     0     -40.865   1.123  22.602  0.00  0.00     0.204 C 
HETATM    6  C   UNK     0     -41.833   1.451  21.466  0.00  0.00     0.291 C 
ENDROOT
BRANCH   2   7
HETATM    7  C   UNK     0     -40.122   4.210  19.717  0.00  0.00     0.205 C 
BRANCH   7   8
HETATM    8  O   UNK     0     -39.939   5.573  20.069  0.00  0.00    -0.356 OA
BRANCH   8   9
HETATM    9  C   UNK     0     -38.710   6.082  19.564  0.00  0.00     0.291 C 
HETATM   10  O   UNK     0     -37.800   6.447  20.606  0.00  0.00    -0.351 OA
HETATM   11  C   UNK     0     -38.255   7.525  21.431  0.00  0.00     0.152 C 
HETATM   12  C   UNK     0     -38.502   8.791  20.599  0.00  0.00     0.178 C 
HETATM   13  C   UNK     0     -37.191   7.745  22.504  0.00  0.00     0.042 C 
HETATM   14  C   UNK     0     -39.461   8.483  19.448  0.00  0.00     0.183 C 
HETATM   15  C   UNK     0     -38.983   7.272  18.645  0.00  0.00     0.204 C 
BRANCH  12  16
HETATM   16  O   UNK     0     -39.090   9.806  21.407  0.00  0.00    -0.390 OA
HETATM   17  H   UNK     0     -40.036   9.859  21.184  0.00  0.00     0.210 HD
ENDBRANCH  12  16
BRANCH  14  18
HETATM   18  O   UNK     0     -39.555   9.623  18.597  0.00  0.00    -0.390 OA
HETATM   19  H   UNK     0     -39.095  10.357  19.040  0.00  0.00     0.210 HD
ENDBRANCH  14  18
BRANCH  15  20
HETATM   20  O   UNK     0     -37.765   7.586  17.968  0.00  0.00    -0.388 OA
HETATM   21  H   UNK     0     -37.168   8.001  18.613  0.00  0.00     0.210 HD
ENDBRANCH  15  20
ENDBRANCH   8   9
ENDBRANCH   7   8
ENDBRANCH   2   7
BRANCH   6  22
HETATM   22  O   UNK     0     -42.313   0.220  20.927  0.00  0.00    -0.358 OA
BRANCH  22  23
HETATM   23  C   UNK     0     -42.694   0.365  19.568  0.00  0.00     0.175 C 
BRANCH  23  24
HETATM   24  C   UNK     0     -43.111  -0.988  19.003  0.00  0.00     0.065 C 
BRANCH  24  25
HETATM   25  C   UNK     0     -44.086  -0.858  17.859  0.00  0.00    -0.053 A 
HETATM   26  C   UNK     0     -43.857  -1.539  16.665  0.00  0.00     0.046 A 
HETATM   27  C   UNK     0     -44.760  -1.420  15.609  0.00  0.00     0.099 A 
HETATM   28  C   UNK     0     -45.892  -0.617  15.747  0.00  0.00     0.098 A 
HETATM   29  C   UNK     0     -46.122   0.065  16.941  0.00  0.00     0.040 A 
HETATM   30  C   UNK     0     -45.220  -0.055  17.998  0.00  0.00     0.010 A 
BRANCH  27  31
HETATM   31  O   UNK     0     -44.526  -2.092  14.447  0.00  0.00    -0.358 OA
HETATM   32  H   UNK     0     -44.895  -2.989  14.521  0.00  0.00     0.217 HD
ENDBRANCH  27  31
BRANCH  28  33
HETATM   33  O   UNK     0     -46.782  -0.492  14.722  0.00  0.00    -0.358 OA
HETATM   34  H   UNK     0     -47.637  -0.865  14.998  0.00  0.00     0.217 HD
ENDBRANCH  28  33
ENDBRANCH  24  25
ENDBRANCH  23  24
ENDBRANCH  22  23
ENDBRANCH   6  22
BRANCH   3  35
HETATM   35  O   UNK     0     -39.219   4.501  22.517  0.00  0.00    -0.390 OA
HETATM   36  H   UNK     0     -38.350   4.384  22.939  0.00  0.00     0.210 HD
ENDBRANCH   3  35
BRANCH   5  37
HETATM   37  O   UNK     0     -41.603   0.498  23.652  0.00  0.00    -0.388 OA
HETATM   38  H   UNK     0     -41.056  -0.217  24.021  0.00  0.00     0.210 HD
ENDBRANCH   5  37
BRANCH   4  39
HETATM   39  O   UNK     0     -39.100   2.015  23.987  0.00  0.00    -0.390 OA
HETATM   40  H   UNK     0     -39.178   2.517  24.817  0.00  0.00     0.210 HD
ENDBRANCH   4  39
TORSDOF 15
ENDMDL
