MODEL 1
REMARK VINA RESULT:      -6.8      0.000      0.000
REMARK  10 active torsions:
REMARK  status: ('A' for Active; 'I' for Inactive)
REMARK    1  A    between atoms: O_2  and  C_15 
REMARK    2  A    between atoms: O_2  and  C_18 
REMARK    3  A    between atoms: O_3  and  C_12 
REMARK    4  A    between atoms: O_4  and  C_13 
REMARK    5  A    between atoms: O_5  and  C_14 
REMARK    6  A    between atoms: O_6  and  C_17 
REMARK    7  A    between atoms: O_9  and  C_19 
REMARK    8  A    between atoms: O_10  and  C_23 
REMARK    9  A    between atoms: C_16  and  C_17 
REMARK   10  A    between atoms: C_25  and  C_27 
ROOT
HETATM    1  O   UNK     0     -47.878  -4.795  17.593  0.00  0.00    -0.340 OA
HETATM    2  C   UNK     0     -50.378  -5.047  16.200  0.00  0.00     0.183 C 
HETATM    3  C   UNK     0     -49.412  -3.889  15.946  0.00  0.00     0.205 C 
HETATM    4  C   UNK     0     -49.658  -6.251  16.807  0.00  0.00     0.189 C 
HETATM    5  C   UNK     0     -48.549  -3.608  17.176  0.00  0.00     0.299 C 
HETATM    6  C   UNK     0     -48.783  -5.822  17.978  0.00  0.00     0.253 C 
ENDROOT
BRANCH   5   7
HETATM    7  O   UNK     0     -47.591  -2.611  16.824  0.00  0.00    -0.315 OA
BRANCH   7   8
HETATM    8  C   UNK     0     -47.319  -1.664  17.768  0.00  0.00     0.111 A 
HETATM    9  C   UNK     0     -46.035  -1.130  17.886  0.00  0.00     0.137 A 
HETATM   10  C   UNK     0     -45.774  -0.161  18.857  0.00  0.00     0.129 A 
HETATM   11  O   UNK     0     -44.494   0.326  18.925  0.00  0.00    -0.306 OA
HETATM   12  C   UNK     0     -46.794   0.268  19.704  0.00  0.00     0.084 A 
HETATM   13  C   UNK     0     -44.206   1.294  19.875  0.00  0.00     0.090 A 
HETATM   14  C   UNK     0     -45.098   1.783  20.751  0.00  0.00     0.094 A 
HETATM   15  C   UNK     0     -46.489   1.288  20.719  0.00  0.00     0.190 A 
HETATM   16  O   UNK     0     -47.335   1.710  21.497  0.00  0.00    -0.287 OA
HETATM   17  C   UNK     0     -48.079  -0.265  19.589  0.00  0.00     0.085 A 
HETATM   18  C   UNK     0     -48.338  -1.233  18.619  0.00  0.00     0.077 A 
BRANCH   9  19
HETATM   19  O   UNK     0     -45.043  -1.555  17.053  0.00  0.00    -0.351 OA
HETATM   20  C   UNK     0     -44.971  -0.942  15.767  0.00  0.00     0.210 C 
ENDBRANCH   9  19
BRANCH  13  21
HETATM   21  C   UNK     0     -42.800   1.744  19.866  0.00  0.00    -0.002 A 
HETATM   22  C   UNK     0     -42.393   2.763  19.000  0.00  0.00     0.014 A 
HETATM   23  C   UNK     0     -41.065   3.189  18.993  0.00  0.00     0.001 A 
HETATM   24  C   UNK     0     -40.138   2.598  19.850  0.00  0.00     0.000 A 
HETATM   25  C   UNK     0     -40.539   1.580  20.716  0.00  0.00     0.001 A 
HETATM   26  C   UNK     0     -41.868   1.154  20.724  0.00  0.00     0.014 A 
ENDBRANCH  13  21
BRANCH  17  27
HETATM   27  O   UNK     0     -49.108   0.121  20.394  0.00  0.00    -0.360 OA
HETATM   28  H   UNK     0     -49.535   0.917  20.043  0.00  0.00     0.217 HD
ENDBRANCH  17  27
ENDBRANCH   7   8
ENDBRANCH   5   7
BRANCH   6  29
HETATM   29  C   UNK     0     -47.881  -6.934  18.407  0.00  0.00     0.172 C 
HETATM   30  O   UNK     0     -47.312  -6.998  19.488  0.00  0.00    -0.648 OA
BRANCH  29  31
HETATM   31  O   UNK     0     -47.772  -7.867  17.432  0.00  0.00    -0.774 OA
HETATM   32  H   UNK     0     -48.257  -7.607  16.619  0.00  0.00     0.167 HD
ENDBRANCH  29  31
ENDBRANCH   6  29
BRANCH   3  33
HETATM   33  O   UNK     0     -50.155  -2.710  15.643  0.00  0.00    -0.388 OA
HETATM   34  H   UNK     0     -49.536  -1.961  15.647  0.00  0.00     0.210 HD
ENDBRANCH   3  33
BRANCH   4  35
HETATM   35  O   UNK     0     -50.628  -7.185  17.278  0.00  0.00    -0.390 OA
HETATM   36  H   UNK     0     -50.178  -8.032  17.439  0.00  0.00     0.210 HD
ENDBRANCH   4  35
BRANCH   2  37
HETATM   37  O   UNK     0     -50.963  -5.459  14.963  0.00  0.00    -0.390 OA
HETATM   38  H   UNK     0     -51.909  -5.237  14.995  0.00  0.00     0.210 HD
ENDBRANCH   2  37
TORSDOF 10
ENDMDL
MODEL 2
REMARK VINA RESULT:      -6.8      3.675      6.078
REMARK  10 active torsions:
REMARK  status: ('A' for Active; 'I' for Inactive)
REMARK    1  A    between atoms: O_2  and  C_15 
REMARK    2  A    between atoms: O_2  and  C_18 
REMARK    3  A    between atoms: O_3  and  C_12 
REMARK    4  A    between atoms: O_4  and  C_13 
REMARK    5  A    between atoms: O_5  and  C_14 
REMARK    6  A    between atoms: O_6  and  C_17 
REMARK    7  A    between atoms: O_9  and  C_19 
REMARK    8  A    between atoms: O_10  and  C_23 
REMARK    9  A    between atoms: C_16  and  C_17 
REMARK   10  A    between atoms: C_25  and  C_27 
ROOT
HETATM    1  O   UNK     0     -49.579   0.343  14.067  0.00  0.00    -0.340 OA
HETATM    2  C   UNK     0     -52.002   1.880  14.228  0.00  0.00     0.183 C 
HETATM    3  C   UNK     0     -51.524   0.983  15.370  0.00  0.00     0.205 C 
HETATM    4  C   UNK     0     -50.847   2.271  13.305  0.00  0.00     0.189 C 
HETATM    5  C   UNK     0     -50.659  -0.165  14.848  0.00  0.00     0.299 C 
HETATM    6  C   UNK     0     -50.028   1.047  12.916  0.00  0.00     0.253 C 
ENDROOT
BRANCH   5   7
HETATM    7  O   UNK     0     -50.147  -0.877  15.973  0.00  0.00    -0.315 OA
BRANCH   7   8
HETATM    8  C   UNK     0     -48.789  -0.974  16.069  0.00  0.00     0.111 A 
HETATM    9  C   UNK     0     -48.093  -0.235  17.027  0.00  0.00     0.137 A 
HETATM   10  C   UNK     0     -46.704  -0.346  17.113  0.00  0.00     0.129 A 
HETATM   11  O   UNK     0     -46.075   0.404  18.073  0.00  0.00    -0.306 OA
HETATM   12  C   UNK     0     -46.018  -1.192  16.243  0.00  0.00     0.084 A 
HETATM   13  C   UNK     0     -44.696   0.309  18.186  0.00  0.00     0.090 A 
HETATM   14  C   UNK     0     -43.924  -0.462  17.404  0.00  0.00     0.094 A 
HETATM   15  C   UNK     0     -44.554  -1.288  16.354  0.00  0.00     0.190 A 
HETATM   16  O   UNK     0     -43.889  -2.008  15.623  0.00  0.00    -0.287 OA
HETATM   17  C   UNK     0     -46.712  -1.932  15.283  0.00  0.00     0.085 A 
HETATM   18  C   UNK     0     -48.100  -1.820  15.200  0.00  0.00     0.077 A 
BRANCH   9  19
HETATM   19  O   UNK     0     -48.771   0.590  17.875  0.00  0.00    -0.351 OA
HETATM   20  C   UNK     0     -49.294   0.006  19.066  0.00  0.00     0.210 C 
ENDBRANCH   9  19
BRANCH  13  21
HETATM   21  C   UNK     0     -44.121   1.162  19.245  0.00  0.00    -0.002 A 
HETATM   22  C   UNK     0     -42.870   1.759  19.065  0.00  0.00     0.014 A 
HETATM   23  C   UNK     0     -42.328   2.566  20.065  0.00  0.00     0.001 A 
HETATM   24  C   UNK     0     -43.033   2.779  21.249  0.00  0.00     0.000 A 
HETATM   25  C   UNK     0     -44.281   2.184  21.434  0.00  0.00     0.001 A 
HETATM   26  C   UNK     0     -44.825   1.377  20.433  0.00  0.00     0.014 A 
ENDBRANCH  13  21
BRANCH  17  27
HETATM   27  O   UNK     0     -46.087  -2.771  14.410  0.00  0.00    -0.360 OA
HETATM   28  H   UNK     0     -45.947  -2.332  13.558  0.00  0.00     0.217 HD
ENDBRANCH  17  27
ENDBRANCH   7   8
ENDBRANCH   5   7
BRANCH   6  29
HETATM   29  C   UNK     0     -48.757   1.446  12.239  0.00  0.00     0.172 C 
HETATM   30  O   UNK     0     -48.621   2.430  11.526  0.00  0.00    -0.648 OA
BRANCH  29  31
HETATM   31  O   UNK     0     -47.768   0.564  12.518  0.00  0.00    -0.774 OA
HETATM   32  H   UNK     0     -47.086   0.951  13.109  0.00  0.00     0.167 HD
ENDBRANCH  29  31
ENDBRANCH   6  29
BRANCH   3  33
HETATM   33  O   UNK     0     -52.654   0.423  16.037  0.00  0.00    -0.388 OA
HETATM   34  H   UNK     0     -52.417  -0.478  16.314  0.00  0.00     0.210 HD
ENDBRANCH   3  33
BRANCH   4  35
HETATM   35  O   UNK     0     -51.376   2.864  12.121  0.00  0.00    -0.390 OA
HETATM   36  H   UNK     0     -51.424   2.177  11.435  0.00  0.00     0.210 HD
ENDBRANCH   4  35
BRANCH   2  37
HETATM   37  O   UNK     0     -52.564   3.078  14.766  0.00  0.00    -0.390 OA
HETATM   38  H   UNK     0     -53.081   2.835  15.552  0.00  0.00     0.210 HD
ENDBRANCH   2  37
TORSDOF 10
ENDMDL
MODEL 3
REMARK VINA RESULT:      -6.7      1.775      2.471
REMARK  10 active torsions:
REMARK  status: ('A' for Active; 'I' for Inactive)
REMARK    1  A    between atoms: O_2  and  C_15 
REMARK    2  A    between atoms: O_2  and  C_18 
REMARK    3  A    between atoms: O_3  and  C_12 
REMARK    4  A    between atoms: O_4  and  C_13 
REMARK    5  A    between atoms: O_5  and  C_14 
REMARK    6  A    between atoms: O_6  and  C_17 
REMARK    7  A    between atoms: O_9  and  C_19 
REMARK    8  A    between atoms: O_10  and  C_23 
REMARK    9  A    between atoms: C_16  and  C_17 
REMARK   10  A    between atoms: C_25  and  C_27 
ROOT
HETATM    1  O   UNK     0     -47.949  -2.310  16.694  0.00  0.00    -0.340 OA
HETATM    2  C   UNK     0     -49.373  -2.275  14.199  0.00  0.00     0.183 C 
HETATM    3  C   UNK     0     -48.133  -1.416  14.445  0.00  0.00     0.205 C 
HETATM    4  C   UNK     0     -49.421  -3.472  15.148  0.00  0.00     0.189 C 
HETATM    5  C   UNK     0     -47.962  -1.105  15.933  0.00  0.00     0.299 C 
HETATM    6  C   UNK     0     -49.170  -3.033  16.585  0.00  0.00     0.253 C 
ENDROOT
BRANCH   5   7
HETATM    7  O   UNK     0     -46.724  -0.416  16.099  0.00  0.00    -0.315 OA
BRANCH   7   8
HETATM    8  C   UNK     0     -46.517   0.188  17.305  0.00  0.00     0.111 A 
HETATM    9  C   UNK     0     -45.241   0.230  17.867  0.00  0.00     0.137 A 
HETATM   10  C   UNK     0     -45.047   0.853  19.101  0.00  0.00     0.129 A 
HETATM   11  O   UNK     0     -43.771   0.861  19.604  0.00  0.00    -0.306 OA
HETATM   12  C   UNK     0     -46.126   1.430  19.767  0.00  0.00     0.084 A 
HETATM   13  C   UNK     0     -43.547   1.479  20.824  0.00  0.00     0.090 A 
HETATM   14  C   UNK     0     -44.503   2.064  21.564  0.00  0.00     0.094 A 
HETATM   15  C   UNK     0     -45.894   2.079  21.066  0.00  0.00     0.190 A 
HETATM   16  O   UNK     0     -46.795   2.604  21.706  0.00  0.00    -0.287 OA
HETATM   17  C   UNK     0     -47.405   1.391  19.206  0.00  0.00     0.085 A 
HETATM   18  C   UNK     0     -47.596   0.767  17.973  0.00  0.00     0.077 A 
BRANCH   9  19
HETATM   19  O   UNK     0     -44.189  -0.338  17.210  0.00  0.00    -0.351 OA
HETATM   20  C   UNK     0     -43.919  -1.711  17.484  0.00  0.00     0.210 C 
ENDBRANCH   9  19
BRANCH  13  21
HETATM   21  C   UNK     0     -42.141   1.425  21.275  0.00  0.00    -0.002 A 
HETATM   22  C   UNK     0     -41.106   1.722  20.384  0.00  0.00     0.014 A 
HETATM   23  C   UNK     0     -39.779   1.672  20.811  0.00  0.00     0.001 A 
HETATM   24  C   UNK     0     -39.482   1.325  22.128  0.00  0.00     0.000 A 
HETATM   25  C   UNK     0     -40.512   1.027  23.020  0.00  0.00     0.001 A 
HETATM   26  C   UNK     0     -41.840   1.077  22.594  0.00  0.00     0.014 A 
ENDBRANCH  13  21
BRANCH  17  27
HETATM   27  O   UNK     0     -48.492   1.940  19.818  0.00  0.00    -0.360 OA
HETATM   28  H   UNK     0     -49.266   1.898  19.238  0.00  0.00     0.217 HD
ENDBRANCH  17  27
ENDBRANCH   7   8
ENDBRANCH   5   7
BRANCH   6  29
HETATM   29  C   UNK     0     -48.952  -4.213  17.476  0.00  0.00     0.172 C 
HETATM   30  O   UNK     0     -49.040  -4.196  18.695  0.00  0.00    -0.648 OA
BRANCH  29  31
HETATM   31  O   UNK     0     -48.638  -5.311  16.749  0.00  0.00    -0.774 OA
HETATM   32  H   UNK     0     -49.434  -5.735  16.360  0.00  0.00     0.167 HD
ENDBRANCH  29  31
ENDBRANCH   6  29
BRANCH   3  33
HETATM   33  O   UNK     0     -48.264  -0.182  13.742  0.00  0.00    -0.388 OA
HETATM   34  H   UNK     0     -48.767  -0.357  12.929  0.00  0.00     0.210 HD
ENDBRANCH   3  33
BRANCH   4  35
HETATM   35  O   UNK     0     -50.711  -4.077  15.073  0.00  0.00    -0.390 OA
HETATM   36  H   UNK     0     -50.605  -4.970  14.705  0.00  0.00     0.210 HD
ENDBRANCH   4  35
BRANCH   2  37
HETATM   37  O   UNK     0     -49.349  -2.773  12.860  0.00  0.00    -0.390 OA
HETATM   38  H   UNK     0     -48.553  -3.321  12.763  0.00  0.00     0.210 HD
ENDBRANCH   2  37
TORSDOF 10
ENDMDL
MODEL 4
REMARK VINA RESULT:      -6.7      2.861      3.740
REMARK  10 active torsions:
REMARK  status: ('A' for Active; 'I' for Inactive)
REMARK    1  A    between atoms: O_2  and  C_15 
REMARK    2  A    between atoms: O_2  and  C_18 
REMARK    3  A    between atoms: O_3  and  C_12 
REMARK    4  A    between atoms: O_4  and  C_13 
REMARK    5  A    between atoms: O_5  and  C_14 
REMARK    6  A    between atoms: O_6  and  C_17 
REMARK    7  A    between atoms: O_9  and  C_19 
REMARK    8  A    between atoms: O_10  and  C_23 
REMARK    9  A    between atoms: C_16  and  C_17 
REMARK   10  A    between atoms: C_25  and  C_27 
ROOT
HETATM    1  O   UNK     0     -49.081  -1.002  16.616  0.00  0.00    -0.340 OA
HETATM    2  C   UNK     0     -48.422  -1.870  13.958  0.00  0.00     0.183 C 
HETATM    3  C   UNK     0     -47.665  -2.363  15.191  0.00  0.00     0.205 C 
HETATM    4  C   UNK     0     -49.814  -1.354  14.326  0.00  0.00     0.189 C 
HETATM    5  C   UNK     0     -47.726  -1.338  16.325  0.00  0.00     0.299 C 
HETATM    6  C   UNK     0     -49.739  -0.398  15.509  0.00  0.00     0.253 C 
ENDROOT
BRANCH   5   7
HETATM    7  O   UNK     0     -47.116  -1.918  17.476  0.00  0.00    -0.315 OA
BRANCH   7   8
HETATM    8  C   UNK     0     -46.836  -1.074  18.510  0.00  0.00     0.111 A 
HETATM    9  C   UNK     0     -45.643  -0.351  18.532  0.00  0.00     0.137 A 
HETATM   10  C   UNK     0     -45.372   0.510  19.598  0.00  0.00     0.129 A 
HETATM   11  O   UNK     0     -44.184   1.193  19.564  0.00  0.00    -0.306 OA
HETATM   12  C   UNK     0     -46.293   0.643  20.635  0.00  0.00     0.084 A 
HETATM   13  C   UNK     0     -43.891   2.060  20.605  0.00  0.00     0.090 A 
HETATM   14  C   UNK     0     -44.692   2.269  21.663  0.00  0.00     0.094 A 
HETATM   15  C   UNK     0     -45.982   1.555  21.747  0.00  0.00     0.190 A 
HETATM   16  O   UNK     0     -46.743   1.720  22.690  0.00  0.00    -0.287 OA
HETATM   17  C   UNK     0     -47.488  -0.079  20.617  0.00  0.00     0.085 A 
HETATM   18  C   UNK     0     -47.756  -0.938  19.551  0.00  0.00     0.077 A 
BRANCH   9  19
HETATM   19  O   UNK     0     -44.747  -0.486  17.512  0.00  0.00    -0.351 OA
HETATM   20  C   UNK     0     -43.847  -1.590  17.585  0.00  0.00     0.210 C 
ENDBRANCH   9  19
BRANCH  13  21
HETATM   21  C   UNK     0     -42.586   2.738  20.473  0.00  0.00    -0.002 A 
HETATM   22  C   UNK     0     -41.928   2.761  19.240  0.00  0.00     0.014 A 
HETATM   23  C   UNK     0     -40.697   3.403  19.114  0.00  0.00     0.001 A 
HETATM   24  C   UNK     0     -40.117   4.024  20.221  0.00  0.00     0.000 A 
HETATM   25  C   UNK     0     -40.771   4.003  21.453  0.00  0.00     0.001 A 
HETATM   26  C   UNK     0     -42.004   3.362  21.579  0.00  0.00     0.014 A 
ENDBRANCH  13  21
BRANCH  17  27
HETATM   27  O   UNK     0     -48.419   0.016  21.608  0.00  0.00    -0.360 OA
HETATM   28  H   UNK     0     -49.146  -0.604  21.451  0.00  0.00     0.217 HD
ENDBRANCH  17  27
ENDBRANCH   7   8
ENDBRANCH   5   7
BRANCH   6  29
HETATM   29  C   UNK     0     -51.103  -0.097  16.041  0.00  0.00     0.172 C 
HETATM   30  O   UNK     0     -51.370   0.813  16.813  0.00  0.00    -0.648 OA
BRANCH  29  31
HETATM   31  O   UNK     0     -52.012  -0.977  15.557  0.00  0.00    -0.774 OA
HETATM   32  H   UNK     0     -52.876  -0.549  15.376  0.00  0.00     0.167 HD
ENDBRANCH  29  31
ENDBRANCH   6  29
BRANCH   3  33
HETATM   33  O   UNK     0     -46.296  -2.574  14.853  0.00  0.00    -0.388 OA
HETATM   34  H   UNK     0     -46.136  -2.156  13.990  0.00  0.00     0.210 HD
ENDBRANCH   3  33
BRANCH   4  35
HETATM   35  O   UNK     0     -50.365  -0.659  13.209  0.00  0.00    -0.390 OA
HETATM   36  H   UNK     0     -51.045  -1.225  12.807  0.00  0.00     0.210 HD
ENDBRANCH   4  35
BRANCH   2  37
HETATM   37  O   UNK     0     -48.580  -2.947  13.033  0.00  0.00    -0.390 OA
HETATM   38  H   UNK     0     -48.157  -2.685  12.199  0.00  0.00     0.210 HD
ENDBRANCH   2  37
TORSDOF 10
ENDMDL
MODEL 5
REMARK VINA RESULT:      -6.6      3.910      6.280
REMARK  10 active torsions:
REMARK  status: ('A' for Active; 'I' for Inactive)
REMARK    1  A    between atoms: O_2  and  C_15 
REMARK    2  A    between atoms: O_2  and  C_18 
REMARK    3  A    between atoms: O_3  and  C_12 
REMARK    4  A    between atoms: O_4  and  C_13 
REMARK    5  A    between atoms: O_5  and  C_14 
REMARK    6  A    between atoms: O_6  and  C_17 
REMARK    7  A    between atoms: O_9  and  C_19 
REMARK    8  A    between atoms: O_10  and  C_23 
REMARK    9  A    between atoms: C_16  and  C_17 
REMARK   10  A    between atoms: C_25  and  C_27 
ROOT
HETATM    1  O   UNK     0     -51.579   1.522  15.401  0.00  0.00    -0.340 OA
HETATM    2  C   UNK     0     -53.795  -0.162  14.687  0.00  0.00     0.183 C 
HETATM    3  C   UNK     0     -52.818  -0.526  15.805  0.00  0.00     0.205 C 
HETATM    4  C   UNK     0     -53.790   1.341  14.408  0.00  0.00     0.189 C 
HETATM    5  C   UNK     0     -51.447   0.112  15.572  0.00  0.00     0.299 C 
HETATM    6  C   UNK     0     -52.364   1.858  14.263  0.00  0.00     0.253 C 
ENDROOT
BRANCH   5   7
HETATM    7  O   UNK     0     -50.634  -0.161  16.711  0.00  0.00    -0.315 OA
BRANCH   7   8
HETATM    8  C   UNK     0     -49.330  -0.482  16.469  0.00  0.00     0.111 A 
HETATM    9  C   UNK     0     -48.315   0.016  17.286  0.00  0.00     0.137 A 
HETATM   10  C   UNK     0     -46.986  -0.322  17.025  0.00  0.00     0.129 A 
HETATM   11  O   UNK     0     -46.032   0.198  17.862  0.00  0.00    -0.306 OA
HETATM   12  C   UNK     0     -46.678  -1.156  15.952  0.00  0.00     0.084 A 
HETATM   13  C   UNK     0     -44.704  -0.127  17.632  0.00  0.00     0.090 A 
HETATM   14  C   UNK     0     -44.280  -0.912  16.628  0.00  0.00     0.094 A 
HETATM   15  C   UNK     0     -45.269  -1.495  15.699  0.00  0.00     0.190 A 
HETATM   16  O   UNK     0     -44.926  -2.219  14.774  0.00  0.00    -0.287 OA
HETATM   17  C   UNK     0     -47.692  -1.656  15.132  0.00  0.00     0.085 A 
HETATM   18  C   UNK     0     -49.019  -1.316  15.395  0.00  0.00     0.077 A 
BRANCH   9  19
HETATM   19  O   UNK     0     -48.624   0.831  18.336  0.00  0.00    -0.351 OA
HETATM   20  C   UNK     0     -48.918   0.200  19.580  0.00  0.00     0.210 C 
ENDBRANCH   9  19
BRANCH  13  21
HETATM   21  C   UNK     0     -43.761   0.491  18.585  0.00  0.00    -0.002 A 
HETATM   22  C   UNK     0     -43.477   1.857  18.507  0.00  0.00     0.014 A 
HETATM   23  C   UNK     0     -42.588   2.441  19.408  0.00  0.00     0.001 A 
HETATM   24  C   UNK     0     -41.978   1.662  20.391  0.00  0.00     0.000 A 
HETATM   25  C   UNK     0     -42.258   0.297  20.472  0.00  0.00     0.001 A 
HETATM   26  C   UNK     0     -43.148  -0.287  19.571  0.00  0.00     0.014 A 
ENDBRANCH  13  21
BRANCH  17  27
HETATM   27  O   UNK     0     -47.441  -2.473  14.071  0.00  0.00    -0.360 OA
HETATM   28  H   UNK     0     -48.125  -2.368  13.393  0.00  0.00     0.217 HD
ENDBRANCH  17  27
ENDBRANCH   7   8
ENDBRANCH   5   7
BRANCH   6  29
HETATM   29  C   UNK     0     -52.335   3.352  14.255  0.00  0.00     0.172 C 
HETATM   30  O   UNK     0     -52.570   4.053  13.280  0.00  0.00    -0.648 OA
BRANCH  29  31
HETATM   31  O   UNK     0     -52.008   3.833  15.478  0.00  0.00    -0.774 OA
HETATM   32  H   UNK     0     -51.054   4.053  15.543  0.00  0.00     0.167 HD
ENDBRANCH  29  31
ENDBRANCH   6  29
BRANCH   3  33
HETATM   33  O   UNK     0     -52.650  -1.942  15.846  0.00  0.00    -0.388 OA
HETATM   34  H   UNK     0     -51.926  -2.135  16.465  0.00  0.00     0.210 HD
ENDBRANCH   3  33
BRANCH   4  35
HETATM   35  O   UNK     0     -54.494   1.592  13.192  0.00  0.00    -0.390 OA
HETATM   36  H   UNK     0     -54.175   2.436  12.829  0.00  0.00     0.210 HD
ENDBRANCH   4  35
BRANCH   2  37
HETATM   37  O   UNK     0     -55.119  -0.536  15.072  0.00  0.00    -0.390 OA
HETATM   38  H   UNK     0     -55.590   0.272  15.334  0.00  0.00     0.210 HD
ENDBRANCH   2  37
TORSDOF 10
ENDMDL
MODEL 6
REMARK VINA RESULT:      -6.4     11.448     15.964
REMARK  10 active torsions:
REMARK  status: ('A' for Active; 'I' for Inactive)
REMARK    1  A    between atoms: O_2  and  C_15 
REMARK    2  A    between atoms: O_2  and  C_18 
REMARK    3  A    between atoms: O_3  and  C_12 
REMARK    4  A    between atoms: O_4  and  C_13 
REMARK    5  A    between atoms: O_5  and  C_14 
REMARK    6  A    between atoms: O_6  and  C_17 
REMARK    7  A    between atoms: O_9  and  C_19 
REMARK    8  A    between atoms: O_10  and  C_23 
REMARK    9  A    between atoms: C_16  and  C_17 
REMARK   10  A    between atoms: C_25  and  C_27 
ROOT
HETATM    1  O   UNK     0     -53.490   3.429  11.788  0.00  0.00    -0.340 OA
HETATM    2  C   UNK     0     -52.119   5.447  10.270  0.00  0.00     0.183 C 
HETATM    3  C   UNK     0     -53.609   5.156  10.087  0.00  0.00     0.205 C 
HETATM    4  C   UNK     0     -51.622   4.978  11.638  0.00  0.00     0.189 C 
HETATM    5  C   UNK     0     -53.941   3.712  10.465  0.00  0.00     0.299 C 
HETATM    6  C   UNK     0     -52.078   3.551  11.916  0.00  0.00     0.253 C 
ENDROOT
BRANCH   5   7
HETATM    7  O   UNK     0     -55.357   3.553  10.395  0.00  0.00    -0.315 OA
BRANCH   7   8
HETATM    8  C   UNK     0     -55.815   2.347   9.949  0.00  0.00     0.111 A 
HETATM    9  C   UNK     0     -56.123   2.161   8.601  0.00  0.00     0.137 A 
HETATM   10  C   UNK     0     -56.590   0.921   8.161  0.00  0.00     0.129 A 
HETATM   11  O   UNK     0     -56.876   0.798   6.826  0.00  0.00    -0.306 OA
HETATM   12  C   UNK     0     -56.748  -0.125   9.069  0.00  0.00     0.084 A 
HETATM   13  C   UNK     0     -57.335  -0.424   6.359  0.00  0.00     0.090 A 
HETATM   14  C   UNK     0     -57.535  -1.503   7.133  0.00  0.00     0.094 A 
HETATM   15  C   UNK     0     -57.244  -1.420   8.579  0.00  0.00     0.190 A 
HETATM   16  O   UNK     0     -57.407  -2.381   9.319  0.00  0.00    -0.287 OA
HETATM   17  C   UNK     0     -56.441   0.058  10.419  0.00  0.00     0.085 A 
HETATM   18  C   UNK     0     -55.974   1.298  10.856  0.00  0.00     0.077 A 
BRANCH   9  19
HETATM   19  O   UNK     0     -55.965   3.189   7.719  0.00  0.00    -0.351 OA
HETATM   20  C   UNK     0     -57.067   4.080   7.561  0.00  0.00     0.210 C 
ENDBRANCH   9  19
BRANCH  13  21
HETATM   21  C   UNK     0     -57.618  -0.445   4.910  0.00  0.00    -0.002 A 
HETATM   22  C   UNK     0     -57.307   0.663   4.117  0.00  0.00     0.014 A 
HETATM   23  C   UNK     0     -57.573   0.643   2.748  0.00  0.00     0.001 A 
HETATM   24  C   UNK     0     -58.152  -0.485   2.167  0.00  0.00     0.000 A 
HETATM   25  C   UNK     0     -58.466  -1.593   2.955  0.00  0.00     0.001 A 
HETATM   26  C   UNK     0     -58.199  -1.573   4.324  0.00  0.00     0.014 A 
ENDBRANCH  13  21
BRANCH  17  27
HETATM   27  O   UNK     0     -56.579  -0.932  11.344  0.00  0.00    -0.360 OA
HETATM   28  H   UNK     0     -57.515  -1.089  11.537  0.00  0.00     0.217 HD
ENDBRANCH  17  27
ENDBRANCH   7   8
ENDBRANCH   5   7
BRANCH   6  29
HETATM   29  C   UNK     0     -51.829   3.178  13.342  0.00  0.00     0.172 C 
HETATM   30  O   UNK     0     -51.589   2.047  13.739  0.00  0.00    -0.648 OA
BRANCH  29  31
HETATM   31  O   UNK     0     -51.909   4.267  14.144  0.00  0.00    -0.774 OA
HETATM   32  H   UNK     0     -51.571   4.084  15.046  0.00  0.00     0.167 HD
ENDBRANCH  29  31
ENDBRANCH   6  29
BRANCH   3  33
HETATM   33  O   UNK     0     -53.966   5.353   8.720  0.00  0.00    -0.388 OA
HETATM   34  H   UNK     0     -53.265   5.886   8.306  0.00  0.00     0.210 HD
ENDBRANCH   3  33
BRANCH   4  35
HETATM   35  O   UNK     0     -50.196   5.014  11.654  0.00  0.00    -0.390 OA
HETATM   36  H   UNK     0     -49.920   5.770  12.200  0.00  0.00     0.210 HD
ENDBRANCH   4  35
BRANCH   2  37
HETATM   37  O   UNK     0     -51.895   6.855  10.178  0.00  0.00    -0.390 OA
HETATM   38  H   UNK     0     -51.632   7.171  11.059  0.00  0.00     0.210 HD
ENDBRANCH   2  37
TORSDOF 10
ENDMDL
MODEL 7
REMARK VINA RESULT:      -6.2      6.476      9.246
REMARK  10 active torsions:
REMARK  status: ('A' for Active; 'I' for Inactive)
REMARK    1  A    between atoms: O_2  and  C_15 
REMARK    2  A    between atoms: O_2  and  C_18 
REMARK    3  A    between atoms: O_3  and  C_12 
REMARK    4  A    between atoms: O_4  and  C_13 
REMARK    5  A    between atoms: O_5  and  C_14 
REMARK    6  A    between atoms: O_6  and  C_17 
REMARK    7  A    between atoms: O_9  and  C_19 
REMARK    8  A    between atoms: O_10  and  C_23 
REMARK    9  A    between atoms: C_16  and  C_17 
REMARK   10  A    between atoms: C_25  and  C_27 
ROOT
HETATM    1  O   UNK     0     -47.590  -1.296  14.860  0.00  0.00    -0.340 OA
HETATM    2  C   UNK     0     -48.304  -1.890  17.579  0.00  0.00     0.183 C 
HETATM    3  C   UNK     0     -49.348  -1.737  16.473  0.00  0.00     0.205 C 
HETATM    4  C   UNK     0     -46.928  -2.229  17.005  0.00  0.00     0.189 C 
HETATM    5  C   UNK     0     -48.841  -0.825  15.355  0.00  0.00     0.299 C 
HETATM    6  C   UNK     0     -46.576  -1.290  15.858  0.00  0.00     0.253 C 
ENDROOT
BRANCH   5   7
HETATM    7  O   UNK     0     -49.808  -0.834  14.306  0.00  0.00    -0.315 OA
BRANCH   7   8
HETATM    8  C   UNK     0     -50.137   0.376  13.768  0.00  0.00     0.111 A 
HETATM    9  C   UNK     0     -51.226   1.097  14.260  0.00  0.00     0.137 A 
HETATM   10  C   UNK     0     -51.549   2.334  13.698  0.00  0.00     0.129 A 
HETATM   11  O   UNK     0     -52.629   2.996  14.223  0.00  0.00    -0.306 OA
HETATM   12  C   UNK     0     -50.785   2.843  12.650  0.00  0.00     0.084 A 
HETATM   13  C   UNK     0     -52.970   4.230  13.690  0.00  0.00     0.090 A 
HETATM   14  C   UNK     0     -52.318   4.822  12.676  0.00  0.00     0.094 A 
HETATM   15  C   UNK     0     -51.149   4.147  12.075  0.00  0.00     0.190 A 
HETATM   16  O   UNK     0     -50.524   4.653  11.153  0.00  0.00    -0.287 OA
HETATM   17  C   UNK     0     -49.695   2.123  12.155  0.00  0.00     0.085 A 
HETATM   18  C   UNK     0     -49.375   0.888  12.718  0.00  0.00     0.077 A 
BRANCH   9  19
HETATM   19  O   UNK     0     -51.969   0.592  15.287  0.00  0.00    -0.351 OA
HETATM   20  C   UNK     0     -53.093  -0.211  14.937  0.00  0.00     0.210 C 
ENDBRANCH   9  19
BRANCH  13  21
HETATM   21  C   UNK     0     -54.150   4.852  14.322  0.00  0.00    -0.002 A 
HETATM   22  C   UNK     0     -54.433   6.203  14.105  0.00  0.00     0.014 A 
HETATM   23  C   UNK     0     -55.549   6.790  14.702  0.00  0.00     0.001 A 
HETATM   24  C   UNK     0     -56.386   6.029  15.518  0.00  0.00     0.000 A 
HETATM   25  C   UNK     0     -56.106   4.680  15.737  0.00  0.00     0.001 A 
HETATM   26  C   UNK     0     -54.990   4.092  15.140  0.00  0.00     0.014 A 
ENDBRANCH  13  21
BRANCH  17  27
HETATM   27  O   UNK     0     -48.919   2.578  11.131  0.00  0.00    -0.360 OA
HETATM   28  H   UNK     0     -48.229   1.934  10.916  0.00  0.00     0.217 HD
ENDBRANCH  17  27
ENDBRANCH   7   8
ENDBRANCH   5   7
BRANCH   6  29
HETATM   29  C   UNK     0     -45.367  -1.772  15.123  0.00  0.00     0.172 C 
HETATM   30  O   UNK     0     -44.269  -1.235  15.151  0.00  0.00    -0.648 OA
BRANCH  29  31
HETATM   31  O   UNK     0     -45.651  -2.890  14.413  0.00  0.00    -0.774 OA
HETATM   32  H   UNK     0     -45.488  -2.767  13.454  0.00  0.00     0.167 HD
ENDBRANCH  29  31
ENDBRANCH   6  29
BRANCH   3  33
HETATM   33  O   UNK     0     -50.534  -1.159  17.017  0.00  0.00    -0.388 OA
HETATM   34  H   UNK     0     -50.378  -1.003  17.964  0.00  0.00     0.210 HD
ENDBRANCH   3  33
BRANCH   4  35
HETATM   35  O   UNK     0     -45.946  -2.088  18.030  0.00  0.00    -0.390 OA
HETATM   36  H   UNK     0     -46.348  -1.596  18.766  0.00  0.00     0.210 HD
ENDBRANCH   4  35
BRANCH   2  37
HETATM   37  O   UNK     0     -48.691  -2.950  18.456  0.00  0.00    -0.390 OA
HETATM   38  H   UNK     0     -49.503  -3.346  18.099  0.00  0.00     0.210 HD
ENDBRANCH   2  37
TORSDOF 10
ENDMDL
MODEL 8
REMARK VINA RESULT:      -6.2      1.653      3.443
REMARK  10 active torsions:
REMARK  status: ('A' for Active; 'I' for Inactive)
REMARK    1  A    between atoms: O_2  and  C_15 
REMARK    2  A    between atoms: O_2  and  C_18 
REMARK    3  A    between atoms: O_3  and  C_12 
REMARK    4  A    between atoms: O_4  and  C_13 
REMARK    5  A    between atoms: O_5  and  C_14 
REMARK    6  A    between atoms: O_6  and  C_17 
REMARK    7  A    between atoms: O_9  and  C_19 
REMARK    8  A    between atoms: O_10  and  C_23 
REMARK    9  A    between atoms: C_16  and  C_17 
REMARK   10  A    between atoms: C_25  and  C_27 
ROOT
HETATM    1  O   UNK     0     -49.630  -4.061  17.386  0.00  0.00    -0.340 OA
HETATM    2  C   UNK     0     -52.105  -5.225  16.504  0.00  0.00     0.183 C 
HETATM    3  C   UNK     0     -51.693  -3.799  16.135  0.00  0.00     0.205 C 
HETATM    4  C   UNK     0     -50.892  -6.076  16.881  0.00  0.00     0.189 C 
HETATM    5  C   UNK     0     -50.753  -3.206  17.185  0.00  0.00     0.299 C 
HETATM    6  C   UNK     0     -50.006  -5.342  17.879  0.00  0.00     0.253 C 
ENDROOT
BRANCH   5   7
HETATM    7  O   UNK     0     -50.311  -1.934  16.712  0.00  0.00    -0.315 OA
BRANCH   7   8
HETATM    8  C   UNK     0     -48.964  -1.769  16.571  0.00  0.00     0.111 A 
HETATM    9  C   UNK     0     -48.246  -0.994  17.482  0.00  0.00     0.137 A 
HETATM   10  C   UNK     0     -46.869  -0.835  17.324  0.00  0.00     0.129 A 
HETATM   11  O   UNK     0     -46.218  -0.062  18.251  0.00  0.00    -0.306 OA
HETATM   12  C   UNK     0     -46.215  -1.449  16.258  0.00  0.00     0.084 A 
HETATM   13  C   UNK     0     -44.848   0.108  18.123  0.00  0.00     0.090 A 
HETATM   14  C   UNK     0     -44.108  -0.425  17.138  0.00  0.00     0.094 A 
HETATM   15  C   UNK     0     -44.763  -1.264  16.114  0.00  0.00     0.190 A 
HETATM   16  O   UNK     0     -44.126  -1.772  15.202  0.00  0.00    -0.287 OA
HETATM   17  C   UNK     0     -46.930  -2.226  15.344  0.00  0.00     0.085 A 
HETATM   18  C   UNK     0     -48.307  -2.383  15.504  0.00  0.00     0.077 A 
BRANCH   9  19
HETATM   19  O   UNK     0     -48.893  -0.395  18.524  0.00  0.00    -0.351 OA
HETATM   20  C   UNK     0     -49.009  -1.146  19.731  0.00  0.00     0.210 C 
ENDBRANCH   9  19
BRANCH  13  21
HETATM   21  C   UNK     0     -44.249   0.963  19.168  0.00  0.00    -0.002 A 
HETATM   22  C   UNK     0     -44.912   1.154  20.384  0.00  0.00     0.014 A 
HETATM   23  C   UNK     0     -44.345   1.960  21.371  0.00  0.00     0.001 A 
HETATM   24  C   UNK     0     -43.115   2.578  21.148  0.00  0.00     0.000 A 
HETATM   25  C   UNK     0     -42.451   2.390  19.935  0.00  0.00     0.001 A 
HETATM   26  C   UNK     0     -43.017   1.583  18.947  0.00  0.00     0.014 A 
ENDBRANCH  13  21
BRANCH  17  27
HETATM   27  O   UNK     0     -46.337  -2.846  14.285  0.00  0.00    -0.360 OA
HETATM   28  H   UNK     0     -46.314  -3.804  14.422  0.00  0.00     0.217 HD
ENDBRANCH  17  27
ENDBRANCH   7   8
ENDBRANCH   5   7
BRANCH   6  29
HETATM   29  C   UNK     0     -48.698  -6.043  18.051  0.00  0.00     0.172 C 
HETATM   30  O   UNK     0     -48.565  -7.242  18.247  0.00  0.00    -0.648 OA
BRANCH  29  31
HETATM   31  O   UNK     0     -47.669  -5.166  17.965  0.00  0.00    -0.774 OA
HETATM   32  H   UNK     0     -47.518  -4.693  18.811  0.00  0.00     0.167 HD
ENDBRANCH  29  31
ENDBRANCH   6  29
BRANCH   3  33
HETATM   33  O   UNK     0     -52.855  -2.975  16.059  0.00  0.00    -0.388 OA
HETATM   34  H   UNK     0     -52.609  -2.088  16.372  0.00  0.00     0.210 HD
ENDBRANCH   3  33
BRANCH   4  35
HETATM   35  O   UNK     0     -51.342  -7.292  17.476  0.00  0.00    -0.390 OA
HETATM   36  H   UNK     0     -51.769  -7.826  16.785  0.00  0.00     0.210 HD
ENDBRANCH   4  35
BRANCH   2  37
HETATM   37  O   UNK     0     -52.746  -5.840  15.385  0.00  0.00    -0.390 OA
HETATM   38  H   UNK     0     -52.916  -5.147  14.725  0.00  0.00     0.210 HD
ENDBRANCH   2  37
TORSDOF 10
ENDMDL
MODEL 9
REMARK VINA RESULT:      -6.0      2.573      4.164
REMARK  10 active torsions:
REMARK  status: ('A' for Active; 'I' for Inactive)
REMARK    1  A    between atoms: O_2  and  C_15 
REMARK    2  A    between atoms: O_2  and  C_18 
REMARK    3  A    between atoms: O_3  and  C_12 
REMARK    4  A    between atoms: O_4  and  C_13 
REMARK    5  A    between atoms: O_5  and  C_14 
REMARK    6  A    between atoms: O_6  and  C_17 
REMARK    7  A    between atoms: O_9  and  C_19 
REMARK    8  A    between atoms: O_10  and  C_23 
REMARK    9  A    between atoms: C_16  and  C_17 
REMARK   10  A    between atoms: C_25  and  C_27 
ROOT
HETATM    1  O   UNK     0     -48.345  -1.958  16.525  0.00  0.00    -0.340 OA
HETATM    2  C   UNK     0     -49.436  -2.612  13.949  0.00  0.00     0.183 C 
HETATM    3  C   UNK     0     -48.325  -1.578  14.128  0.00  0.00     0.205 C 
HETATM    4  C   UNK     0     -49.490  -3.584  15.128  0.00  0.00     0.189 C 
HETATM    5  C   UNK     0     -48.376  -0.946  15.521  0.00  0.00     0.299 C 
HETATM    6  C   UNK     0     -49.467  -2.829  16.451  0.00  0.00     0.253 C 
ENDROOT
BRANCH   5   7
HETATM    7  O   UNK     0     -47.241  -0.094  15.659  0.00  0.00    -0.315 OA
BRANCH   7   8
HETATM    8  C   UNK     0     -46.381  -0.383  16.678  0.00  0.00     0.111 A 
HETATM    9  C   UNK     0     -46.514   0.245  17.918  0.00  0.00     0.137 A 
HETATM   10  C   UNK     0     -45.626  -0.062  18.950  0.00  0.00     0.129 A 
HETATM   11  O   UNK     0     -45.807   0.586  20.144  0.00  0.00    -0.306 OA
HETATM   12  C   UNK     0     -44.610  -0.993  18.740  0.00  0.00     0.084 A 
HETATM   13  C   UNK     0     -44.944   0.296  21.190  0.00  0.00     0.090 A 
HETATM   14  C   UNK     0     -43.924  -0.574  21.111  0.00  0.00     0.094 A 
HETATM   15  C   UNK     0     -43.687  -1.297  19.845  0.00  0.00     0.190 A 
HETATM   16  O   UNK     0     -42.773  -2.102  19.731  0.00  0.00    -0.287 OA
HETATM   17  C   UNK     0     -44.474  -1.623  17.501  0.00  0.00     0.085 A 
HETATM   18  C   UNK     0     -45.362  -1.315  16.471  0.00  0.00     0.077 A 
BRANCH   9  19
HETATM   19  O   UNK     0     -47.511   1.155  18.115  0.00  0.00    -0.351 OA
HETATM   20  C   UNK     0     -48.706   0.681  18.732  0.00  0.00     0.210 C 
ENDBRANCH   9  19
BRANCH  13  21
HETATM   21  C   UNK     0     -45.223   1.054  22.426  0.00  0.00    -0.002 A 
HETATM   22  C   UNK     0     -45.446   0.379  23.629  0.00  0.00     0.014 A 
HETATM   23  C   UNK     0     -45.709   1.095  24.797  0.00  0.00     0.001 A 
HETATM   24  C   UNK     0     -45.749   2.489  24.767  0.00  0.00     0.000 A 
HETATM   25  C   UNK     0     -45.528   3.167  23.568  0.00  0.00     0.001 A 
HETATM   26  C   UNK     0     -45.265   2.451  22.399  0.00  0.00     0.014 A 
ENDBRANCH  13  21
BRANCH  17  27
HETATM   27  O   UNK     0     -43.497  -2.539  17.247  0.00  0.00    -0.360 OA
HETATM   28  H   UNK     0     -43.083  -2.365  16.389  0.00  0.00     0.217 HD
ENDBRANCH  17  27
ENDBRANCH   7   8
ENDBRANCH   5   7
BRANCH   6  29
HETATM   29  C   UNK     0     -49.254  -3.764  17.598  0.00  0.00     0.172 C 
HETATM   30  O   UNK     0     -48.162  -4.097  18.037  0.00  0.00    -0.648 OA
BRANCH  29  31
HETATM   31  O   UNK     0     -50.438  -4.201  18.087  0.00  0.00    -0.774 OA
HETATM   32  H   UNK     0     -51.190  -3.954  17.506  0.00  0.00     0.167 HD
ENDBRANCH  29  31
ENDBRANCH   6  29
BRANCH   3  33
HETATM   33  O   UNK     0     -48.483  -0.541  13.162  0.00  0.00    -0.388 OA
HETATM   34  H   UNK     0     -47.685   0.014  13.191  0.00  0.00     0.210 HD
ENDBRANCH   3  33
BRANCH   4  35
HETATM   35  O   UNK     0     -50.696  -4.342  15.054  0.00  0.00    -0.390 OA
HETATM   36  H   UNK     0     -51.429  -3.771  15.341  0.00  0.00     0.210 HD
ENDBRANCH   4  35
BRANCH   2  37
HETATM   37  O   UNK     0     -49.194  -3.370  12.763  0.00  0.00    -0.390 OA
HETATM   38  H   UNK     0     -50.056  -3.575  12.362  0.00  0.00     0.210 HD
ENDBRANCH   2  37
TORSDOF 10
ENDMDL
MODEL 10
REMARK VINA RESULT:      -5.8      4.301     10.059
REMARK  10 active torsions:
REMARK  status: ('A' for Active; 'I' for Inactive)
REMARK    1  A    between atoms: O_2  and  C_15 
REMARK    2  A    between atoms: O_2  and  C_18 
REMARK    3  A    between atoms: O_3  and  C_12 
REMARK    4  A    between atoms: O_4  and  C_13 
REMARK    5  A    between atoms: O_5  and  C_14 
REMARK    6  A    between atoms: O_6  and  C_17 
REMARK    7  A    between atoms: O_9  and  C_19 
REMARK    8  A    between atoms: O_10  and  C_23 
REMARK    9  A    between atoms: C_16  and  C_17 
REMARK   10  A    between atoms: C_25  and  C_27 
ROOT
HETATM    1  O   UNK     0     -47.459  -0.171  16.595  0.00  0.00    -0.340 OA
HETATM    2  C   UNK     0     -45.084  -1.713  16.113  0.00  0.00     0.183 C 
HETATM    3  C   UNK     0     -46.218  -1.616  15.092  0.00  0.00     0.205 C 
HETATM    4  C   UNK     0     -45.107  -0.535  17.087  0.00  0.00     0.189 C 
HETATM    5  C   UNK     0     -47.556  -1.334  15.777  0.00  0.00     0.299 C 
HETATM    6  C   UNK     0     -46.510  -0.323  17.644  0.00  0.00     0.253 C 
ENDROOT
BRANCH   5   7
HETATM    7  O   UNK     0     -48.536  -1.129  14.761  0.00  0.00    -0.315 OA
BRANCH   7   8
HETATM    8  C   UNK     0     -49.676  -1.874  14.851  0.00  0.00     0.111 A 
HETATM    9  C   UNK     0     -50.897  -1.357  14.416  0.00  0.00     0.137 A 
HETATM   10  C   UNK     0     -52.053  -2.133  14.515  0.00  0.00     0.129 A 
HETATM   11  O   UNK     0     -53.223  -1.571  14.072  0.00  0.00    -0.306 OA
HETATM   12  C   UNK     0     -51.985  -3.419  15.047  0.00  0.00     0.084 A 
HETATM   13  C   UNK     0     -54.387  -2.320  14.151  0.00  0.00     0.090 A 
HETATM   14  C   UNK     0     -54.452  -3.566  14.649  0.00  0.00     0.094 A 
HETATM   15  C   UNK     0     -53.219  -4.214  15.141  0.00  0.00     0.190 A 
HETATM   16  O   UNK     0     -53.234  -5.348  15.598  0.00  0.00    -0.287 OA
HETATM   17  C   UNK     0     -50.765  -3.939  15.483  0.00  0.00     0.085 A 
HETATM   18  C   UNK     0     -49.611  -3.162  15.384  0.00  0.00     0.077 A 
BRANCH   9  19
HETATM   19  O   UNK     0     -50.955  -0.097  13.896  0.00  0.00    -0.351 OA
HETATM   20  C   UNK     0     -51.374   0.946  14.773  0.00  0.00     0.210 C 
ENDBRANCH   9  19
BRANCH  13  21
HETATM   21  C   UNK     0     -55.587  -1.619  13.654  0.00  0.00    -0.002 A 
HETATM   22  C   UNK     0     -56.783  -2.318  13.470  0.00  0.00     0.014 A 
HETATM   23  C   UNK     0     -57.917  -1.655  13.001  0.00  0.00     0.001 A 
HETATM   24  C   UNK     0     -57.861  -0.291  12.715  0.00  0.00     0.000 A 
HETATM   25  C   UNK     0     -56.668   0.410  12.897  0.00  0.00     0.001 A 
HETATM   26  C   UNK     0     -55.533  -0.253  13.366  0.00  0.00     0.014 A 
ENDBRANCH  13  21
BRANCH  17  27
HETATM   27  O   UNK     0     -50.647  -5.190  16.011  0.00  0.00    -0.360 OA
HETATM   28  H   UNK     0     -50.873  -5.184  16.953  0.00  0.00     0.217 HD
ENDBRANCH  17  27
ENDBRANCH   7   8
ENDBRANCH   5   7
BRANCH   6  29
HETATM   29  C   UNK     0     -46.602   0.973  18.383  0.00  0.00     0.172 C 
HETATM   30  O   UNK     0     -47.616   1.408  18.910  0.00  0.00    -0.648 OA
BRANCH  29  31
HETATM   31  O   UNK     0     -45.406   1.609  18.388  0.00  0.00    -0.774 OA
HETATM   32  H   UNK     0     -44.656   0.980  18.324  0.00  0.00     0.167 HD
ENDBRANCH  29  31
ENDBRANCH   6  29
BRANCH   3  33
HETATM   33  O   UNK     0     -46.328  -2.851  14.387  0.00  0.00    -0.388 OA
HETATM   34  H   UNK     0     -45.819  -3.518  14.879  0.00  0.00     0.210 HD
ENDBRANCH   3  33
BRANCH   4  35
HETATM   35  O   UNK     0     -44.221  -0.809  18.171  0.00  0.00    -0.390 OA
HETATM   36  H   UNK     0     -44.463  -0.227  18.912  0.00  0.00     0.210 HD
ENDBRANCH   4  35
BRANCH   2  37
HETATM   37  O   UNK     0     -43.828  -1.698  15.431  0.00  0.00    -0.390 OA
HETATM   38  H   UNK     0     -44.000  -1.482  14.500  0.00  0.00     0.210 HD
ENDBRANCH   2  37
TORSDOF 10
ENDMDL
