MODEL 1
REMARK VINA RESULT:     -11.0      0.000      0.000
REMARK  8 active torsions:
REMARK  status: ('A' for Active; 'I' for Inactive)
REMARK    1  A    between atoms: O_1  and  C_33 
REMARK    2  A    between atoms: O_1  and  C_49 
REMARK    3  A    between atoms: O_8  and  C_53 
REMARK    4  A    between atoms: O_12  and  C_56 
REMARK    5  A    between atoms: O_13  and  C_57 
REMARK    6  A    between atoms: O_14  and  C_59 
REMARK    7  A    between atoms: C_52  and  C_55 
REMARK    8  A    between atoms: C_58  and  C_60 
ROOT
HETATM    1  O   MOL     1     -44.711  -0.775  18.985  1.00  0.00     0.000 OA
ENDROOT
BRANCH   1   2
HETATM    2  C   MOL     1     -44.080  -0.040  19.239  1.00  0.00     0.007 C 
HETATM    3  C   MOL     1     -43.356  -0.196  20.034  1.00  0.00    -0.058 C 
HETATM    4  C   MOL     1     -42.310   0.375  19.955  1.00  0.00    -0.007 C 
HETATM    5  C   MOL     1     -43.001  -0.749  20.787  1.00  0.00     0.027 C 
HETATM    6  C   MOL     1     -43.752  -1.094  20.224  1.00  0.00    -0.005 C 
HETATM    7  C   MOL     1     -42.640   1.485  19.736  1.00  0.00    -0.037 A 
HETATM    8  C   MOL     1     -41.977   0.456  21.059  1.00  0.00     0.006 C 
HETATM    9  C   MOL     1     -41.580   1.989  19.636  1.00  0.00     0.013 A 
HETATM   10  C   MOL     1     -43.287   1.620  18.875  1.00  0.00     0.014 C 
HETATM   11  C   MOL     1     -43.235   2.728  19.788  1.00  0.00     0.081 C 
HETATM   12  C   MOL     1     -41.884   3.040  19.404  1.00  0.00    -0.024 A 
HETATM   13  C   MOL     1     -41.307   2.097  20.738  1.00  0.00    -0.033 A 
HETATM   14  C   MOL     1     -40.579   2.771  20.895  1.00  0.00    -0.030 A 
HETATM   15  C   MOL     1     -41.290   1.208  21.280  1.00  0.00     0.011 C 
HETATM   16  C   MOL     1     -41.473   2.074  22.108  1.00  0.00     0.044 C 
HETATM   17  C   MOL     1     -40.585   3.632  20.384  1.00  0.00    -0.018 A 
HETATM   18  C   MOL     1     -40.231   4.597  20.911  1.00  0.00    -0.002 C 
HETATM   19  C   MOL     1     -41.221   3.756  19.623  1.00  0.00    -0.036 C 
HETATM   20  C   MOL     1     -39.955   2.649  21.722  1.00  0.00     0.041 A 
HETATM   21  C   MOL     1     -39.267   4.286  21.423  1.00  0.00    -0.059 C 
HETATM   22  C   MOL     1     -39.891   5.289  19.998  1.00  0.00     0.003 C 
HETATM   23  C   MOL     1     -39.262   3.390  21.957  1.00  0.00     0.009 C 
HETATM   24  C   MOL     1     -38.512   5.038  21.636  1.00  0.00     0.014 C 
HETATM   25  C   MOL     1     -39.255   4.570  22.773  1.00  0.00     0.028 C 
HETATM   26  C   MOL     1     -38.483   5.949  21.048  1.00  0.00     0.253 A 
HETATM   27  C   MOL     1     -39.145   6.054  20.192  1.00  0.00     0.003 A 
HETATM   28  O   MOL     1     -38.037   7.327  20.588  1.00  0.00    -0.382 OA
HETATM   29  C   MOL     1     -38.876   6.202  18.847  1.00  0.00     0.044 C 
HETATM   30  C   MOL     1     -38.787   6.975  20.028  1.00  0.00     0.080 A 
HETATM   31  O   MOL     1     -39.147   7.523  19.273  1.00  0.00     0.000 OA
HETATM   32  C   MOL     1     -39.719   1.698  21.008  1.00  0.00     0.025 C 
HETATM   33  C   MOL     1     -44.012   0.853  18.624  1.00  0.00    -0.012 C 
HETATM   34  O   MOL     1     -42.521   3.164  18.642  1.00  0.00     0.000 OA
ENDBRANCH   1   2
BRANCH   1  35
HETATM   35  C   MOL     1     -45.698  -0.609  18.980  1.00  0.00    -0.027 A 
HETATM   36  O   MOL     1     -46.160  -0.329  19.824  1.00  0.00     0.000 OA
HETATM   37  C   MOL     1     -47.158  -0.257  19.850  1.00  0.00     0.096 A 
HETATM   38  C   MOL     1     -47.684  -0.372  19.002  1.00  0.00     0.133 A 
HETATM   39  C   MOL     1     -47.240  -0.794  18.205  1.00  0.00     0.055 A 
HETATM   40  O   MOL     1     -47.881  -1.900  17.686  1.00  0.00     0.000 OA
HETATM   41  C   MOL     1     -46.235  -0.819  18.163  1.00  0.00     0.007 A 
HETATM   42  H   MOL     1     -48.386  -0.883  17.379  1.00  0.00     0.000 HD
HETATM   43  O   MOL     1     -47.315  -1.284  16.544  1.00  0.00     0.000 OA
HETATM   44  C   MOL     1     -46.328  -1.450  16.550  1.00  0.00     0.057 A 
HETATM   45  C   MOL     1     -47.858  -1.541  15.743  1.00  0.00     0.071 C 
HETATM   46  O   MOL     1     -45.786  -1.193  17.351  1.00  0.00     0.000 OA
HETATM   47  C   MOL     1     -45.861  -1.684  15.691  1.00  0.00     0.154 A 
HETATM   48  C   MOL     1     -46.409  -1.987  14.905  1.00  0.00     0.211 A 
HETATM   49  C   MOL     1     -47.391  -1.774  14.884  1.00  0.00     0.146 C 
BRANCH  37  50
HETATM   50  C   MOL     1     -47.717  -0.826  20.975  1.00  0.00     0.297 C 
HETATM   51  O   MOL     1     -48.244   0.487  20.976  1.00  0.00    -0.188 OA
HETATM   52  O   MOL     1     -46.674  -0.026  21.498  1.00  0.00    -0.188 OA
ENDBRANCH  37  50
BRANCH  38  53
HETATM   53  O   MOL     1     -48.573   0.642  18.714  1.00  0.00    -0.395 OA
HETATM   54  H   MOL     1     -49.071  -0.424  18.717  1.00  0.00     0.210 HD
ENDBRANCH  38  53
BRANCH  47  55
HETATM   55  O   MOL     1     -44.764  -0.906  15.382  1.00  0.00    -0.393 OA
HETATM   56  H   MOL     1     -44.481  -2.004  15.695  1.00  0.00     0.210 HD
ENDBRANCH  47  55
BRANCH  48  57
HETATM   57  O   MOL     1     -46.057  -3.211  14.375  1.00  0.00    -0.392 OA
HETATM   58  H   MOL     1     -46.856  -2.638  13.728  1.00  0.00     0.210 HD
ENDBRANCH  48  57
BRANCH  49  59
HETATM   59  O   MOL     1     -47.825  -1.088  13.769  1.00  0.00    -0.399 OA
HETATM   60  H   MOL     1     -46.674  -0.960  13.974  1.00  0.00     0.209 HD
ENDBRANCH  49  59
BRANCH  45  61
HETATM   61  C   MOL     1     -48.955  -2.318  16.052  1.00  0.00     0.292 C 
HETATM   62  O   MOL     1     -49.009  -2.223  14.642  1.00  0.00    -0.188 OA
HETATM   63  O   MOL     1     -49.518  -1.045  15.805  1.00  0.00    -0.188 OA
ENDBRANCH  45  61
ENDBRANCH   1  35
TORSDOF 8
ENDMDL
MODEL 2
REMARK VINA RESULT:     -10.8      1.977      3.098
REMARK  8 active torsions:
REMARK  status: ('A' for Active; 'I' for Inactive)
REMARK    1  A    between atoms: O_1  and  C_33 
REMARK    2  A    between atoms: O_1  and  C_49 
REMARK    3  A    between atoms: O_8  and  C_53 
REMARK    4  A    between atoms: O_12  and  C_56 
REMARK    5  A    between atoms: O_13  and  C_57 
REMARK    6  A    between atoms: O_14  and  C_59 
REMARK    7  A    between atoms: C_52  and  C_55 
REMARK    8  A    between atoms: C_58  and  C_60 
ROOT
HETATM    1  O   MOL     1     -46.844  -1.690  18.202  1.00  0.00     0.000 OA
ENDROOT
BRANCH   1   2
HETATM    2  C   MOL     1     -46.234  -1.047  18.668  1.00  0.00     0.007 C 
HETATM    3  C   MOL     1     -45.232  -0.875  18.285  1.00  0.00    -0.058 C 
HETATM    4  C   MOL     1     -44.755   0.209  18.440  1.00  0.00    -0.007 C 
HETATM    5  C   MOL     1     -44.488  -1.117  17.662  1.00  0.00     0.027 C 
HETATM    6  C   MOL     1     -45.369  -1.584  17.593  1.00  0.00    -0.005 C 
HETATM    7  C   MOL     1     -44.934   0.406  19.587  1.00  0.00    -0.037 A 
HETATM    8  C   MOL     1     -43.619  -0.005  18.426  1.00  0.00     0.006 C 
HETATM    9  C   MOL     1     -44.479   1.489  19.675  1.00  0.00     0.013 A 
HETATM   10  C   MOL     1     -45.963   0.320  19.922  1.00  0.00     0.014 C 
HETATM   11  C   MOL     1     -44.972   0.302  20.962  1.00  0.00     0.081 C 
HETATM   12  C   MOL     1     -44.667   1.694  20.758  1.00  0.00    -0.024 A 
HETATM   13  C   MOL     1     -43.367   1.235  19.708  1.00  0.00    -0.033 A 
HETATM   14  C   MOL     1     -42.808   1.982  20.080  1.00  0.00    -0.030 A 
HETATM   15  C   MOL     1     -43.009   0.703  18.887  1.00  0.00     0.011 C 
HETATM   16  C   MOL     1     -42.233   0.453  19.784  1.00  0.00     0.044 C 
HETATM   17  C   MOL     1     -43.138   2.499  20.871  1.00  0.00    -0.018 A 
HETATM   18  C   MOL     1     -42.375   2.862  21.659  1.00  0.00    -0.002 C 
HETATM   19  C   MOL     1     -44.075   2.372  21.195  1.00  0.00    -0.036 C 
HETATM   20  C   MOL     1     -41.817   2.069  19.765  1.00  0.00     0.041 A 
HETATM   21  C   MOL     1     -41.540   3.312  21.037  1.00  0.00    -0.059 C 
HETATM   22  C   MOL     1     -42.932   3.795  22.158  1.00  0.00     0.003 C 
HETATM   23  C   MOL     1     -41.195   2.773  20.214  1.00  0.00     0.009 C 
HETATM   24  C   MOL     1     -40.907   4.081  21.473  1.00  0.00     0.014 C 
HETATM   25  C   MOL     1     -40.300   2.787  21.335  1.00  0.00     0.028 C 
HETATM   26  C   MOL     1     -41.283   4.679  22.297  1.00  0.00     0.253 A 
HETATM   27  C   MOL     1     -42.318   4.569  22.609  1.00  0.00     0.003 A 
HETATM   28  O   MOL     1     -41.292   5.714  23.410  1.00  0.00    -0.382 OA
HETATM   29  C   MOL     1     -43.367   5.465  22.614  1.00  0.00     0.044 C 
HETATM   30  C   MOL     1     -42.171   5.242  23.335  1.00  0.00     0.080 A 
HETATM   31  O   MOL     1     -42.919   5.479  23.955  1.00  0.00     0.000 OA
HETATM   32  C   MOL     1     -42.482   2.282  18.774  1.00  0.00     0.025 C 
HETATM   33  C   MOL     1     -46.617  -0.411  19.460  1.00  0.00    -0.012 C 
HETATM   34  O   MOL     1     -45.606   1.566  21.082  1.00  0.00     0.000 OA
ENDBRANCH   1   2
BRANCH   1  35
HETATM   35  C   MOL     1     -47.836  -1.592  18.287  1.00  0.00    -0.027 A 
HETATM   36  O   MOL     1     -48.265  -1.651  19.191  1.00  0.00     0.000 OA
HETATM   37  C   MOL     1     -49.263  -1.652  19.273  1.00  0.00     0.096 A 
HETATM   38  C   MOL     1     -49.827  -1.495  18.457  1.00  0.00     0.133 A 
HETATM   39  C   MOL     1     -49.406  -1.586  17.549  1.00  0.00     0.055 A 
HETATM   40  O   MOL     1     -50.024  -2.477  16.696  1.00  0.00     0.000 OA
HETATM   41  C   MOL     1     -48.405  -1.535  17.467  1.00  0.00     0.007 A 
HETATM   42  H   MOL     1     -50.589  -1.449  16.782  1.00  0.00     0.000 HD
HETATM   43  O   MOL     1     -49.545  -1.470  15.825  1.00  0.00     0.000 OA
HETATM   44  C   MOL     1     -48.553  -1.568  15.739  1.00  0.00     0.057 A 
HETATM   45  C   MOL     1     -50.117  -1.463  15.003  1.00  0.00     0.071 C 
HETATM   46  O   MOL     1     -47.982  -1.575  16.561  1.00  0.00     0.000 OA
HETATM   47  C   MOL     1     -48.121  -1.459  14.838  1.00  0.00     0.154 A 
HETATM   48  C   MOL     1     -48.696  -1.502  14.014  1.00  0.00     0.211 A 
HETATM   49  C   MOL     1     -49.686  -1.354  14.102  1.00  0.00     0.146 C 
BRANCH  37  50
HETATM   50  C   MOL     1     -49.738  -2.609  20.146  1.00  0.00     0.297 C 
HETATM   51  O   MOL     1     -50.312  -1.412  20.632  1.00  0.00    -0.188 OA
HETATM   52  O   MOL     1     -48.697  -1.990  20.876  1.00  0.00    -0.188 OA
ENDBRANCH  37  50
BRANCH  38  53
HETATM   53  O   MOL     1     -50.774  -0.499  18.573  1.00  0.00    -0.395 OA
HETATM   54  H   MOL     1     -49.783  -0.269  19.165  1.00  0.00     0.210 HD
ENDBRANCH  38  53
BRANCH  47  55
HETATM   55  O   MOL     1     -47.078  -0.559  14.786  1.00  0.00    -0.393 OA
HETATM   56  H   MOL     1     -47.644  -0.673  13.761  1.00  0.00     0.210 HD
ENDBRANCH  47  55
BRANCH  48  57
HETATM   57  O   MOL     1     -48.318  -2.441  13.077  1.00  0.00    -0.392 OA
HETATM   58  H   MOL     1     -47.497  -1.620  13.268  1.00  0.00     0.210 HD
ENDBRANCH  48  57
BRANCH  49  59
HETATM   59  O   MOL     1     -50.206  -0.349  13.314  1.00  0.00    -0.399 OA
HETATM   60  H   MOL     1     -50.589  -1.419  13.012  1.00  0.00     0.209 HD
ENDBRANCH  49  59
BRANCH  45  61
HETATM   61  C   MOL     1     -51.162  -2.363  15.055  1.00  0.00     0.292 C 
HETATM   62  O   MOL     1     -51.317  -1.757  13.787  1.00  0.00    -0.188 OA
HETATM   63  O   MOL     1     -51.786  -1.124  15.330  1.00  0.00    -0.188 OA
ENDBRANCH  45  61
ENDBRANCH   1  35
TORSDOF 8
ENDMDL
MODEL 3
REMARK VINA RESULT:     -10.8      3.713      7.221
REMARK  8 active torsions:
REMARK  status: ('A' for Active; 'I' for Inactive)
REMARK    1  A    between atoms: O_1  and  C_33 
REMARK    2  A    between atoms: O_1  and  C_49 
REMARK    3  A    between atoms: O_8  and  C_53 
REMARK    4  A    between atoms: O_12  and  C_56 
REMARK    5  A    between atoms: O_13  and  C_57 
REMARK    6  A    between atoms: O_14  and  C_59 
REMARK    7  A    between atoms: C_52  and  C_55 
REMARK    8  A    between atoms: C_58  and  C_60 
ROOT
HETATM    1  O   MOL     1     -50.565  -0.758  14.783  1.00  0.00     0.000 OA
ENDROOT
BRANCH   1   2
HETATM    2  C   MOL     1     -49.725  -0.737  15.328  1.00  0.00     0.007 C 
HETATM    3  C   MOL     1     -48.877  -1.352  15.041  1.00  0.00    -0.058 C 
HETATM    4  C   MOL     1     -47.782  -0.939  15.285  1.00  0.00    -0.007 C 
HETATM    5  C   MOL     1     -48.482  -2.076  14.475  1.00  0.00     0.027 C 
HETATM    6  C   MOL     1     -49.419  -1.766  14.310  1.00  0.00    -0.005 C 
HETATM    7  C   MOL     1     -47.870  -0.637  16.420  1.00  0.00    -0.037 A 
HETATM    8  C   MOL     1     -47.154  -1.907  15.360  1.00  0.00     0.006 C 
HETATM    9  C   MOL     1     -46.785  -0.211  16.594  1.00  0.00     0.013 A 
HETATM   10  C   MOL     1     -48.670   0.056  16.660  1.00  0.00     0.014 C 
HETATM   11  C   MOL     1     -48.096  -0.637  17.780  1.00  0.00     0.081 C 
HETATM   12  C   MOL     1     -46.866   0.101  17.665  1.00  0.00    -0.024 A 
HETATM   13  C   MOL     1     -46.206  -1.188  16.712  1.00  0.00    -0.033 A 
HETATM   14  C   MOL     1     -45.317  -1.061  17.163  1.00  0.00    -0.030 A 
HETATM   15  C   MOL     1     -46.267  -1.840  15.902  1.00  0.00     0.011 C 
HETATM   16  C   MOL     1     -45.995  -2.543  16.852  1.00  0.00     0.044 C 
HETATM   17  C   MOL     1     -45.245  -0.440  17.945  1.00  0.00    -0.018 A 
HETATM   18  C   MOL     1     -44.531  -0.712  18.811  1.00  0.00    -0.002 C 
HETATM   19  C   MOL     1     -46.011   0.158  18.180  1.00  0.00    -0.036 C 
HETATM   20  C   MOL     1     -44.544  -1.725  16.939  1.00  0.00     0.041 A 
HETATM   21  C   MOL     1     -43.575  -1.022  18.285  1.00  0.00    -0.059 C 
HETATM   22  C   MOL     1     -44.288   0.351  19.300  1.00  0.00     0.003 C 
HETATM   23  C   MOL     1     -43.651  -1.671  17.471  1.00  0.00     0.009 C 
HETATM   24  C   MOL     1     -42.627  -0.931  18.807  1.00  0.00     0.014 C 
HETATM   25  C   MOL     1     -43.127  -2.270  18.665  1.00  0.00     0.028 C 
HETATM   26  C   MOL     1     -42.530  -0.220  19.620  1.00  0.00     0.253 A 
HETATM   27  C   MOL     1     -43.350   0.460  19.836  1.00  0.00     0.003 A 
HETATM   28  O   MOL     1     -41.893   0.540  20.772  1.00  0.00    -0.382 OA
HETATM   29  C   MOL     1     -43.427   1.836  19.789  1.00  0.00     0.044 C 
HETATM   30  C   MOL     1     -42.830   0.844  20.601  1.00  0.00     0.080 A 
HETATM   31  O   MOL     1     -43.231   1.567  21.164  1.00  0.00     0.000 OA
HETATM   32  C   MOL     1     -44.757  -1.131  15.905  1.00  0.00     0.025 C 
HETATM   33  C   MOL     1     -49.604   0.006  16.111  1.00  0.00    -0.012 C 
HETATM   34  O   MOL     1     -47.633   0.699  17.899  1.00  0.00     0.000 OA
ENDBRANCH   1   2
BRANCH   1  35
HETATM   35  C   MOL     1     -51.409  -0.362  15.146  1.00  0.00    -0.027 A 
HETATM   36  O   MOL     1     -51.938  -0.864  15.833  1.00  0.00     0.000 OA
HETATM   37  C   MOL     1     -52.832  -0.521  16.128  1.00  0.00     0.096 A 
HETATM   38  C   MOL     1     -53.148   0.377  15.805  1.00  0.00     0.133 A 
HETATM   39  C   MOL     1     -52.692   0.799  15.015  1.00  0.00     0.055 A 
HETATM   40  O   MOL     1     -53.521   1.139  13.966  1.00  0.00     0.000 OA
HETATM   41  C   MOL     1     -51.774   0.483  14.755  1.00  0.00     0.007 A 
HETATM   42  H   MOL     1     -53.571   1.899  14.862  1.00  0.00     0.000 HD
HETATM   43  O   MOL     1     -52.528   2.146  13.937  1.00  0.00     0.000 OA
HETATM   44  C   MOL     1     -51.683   1.750  13.573  1.00  0.00     0.057 A 
HETATM   45  C   MOL     1     -52.917   2.964  13.511  1.00  0.00     0.071 C 
HETATM   46  O   MOL     1     -51.295   0.932  14.000  1.00  0.00     0.000 OA
HETATM   47  C   MOL     1     -51.130   2.279  12.922  1.00  0.00     0.154 A 
HETATM   48  C   MOL     1     -51.544   3.070  12.461  1.00  0.00     0.211 A 
HETATM   49  C   MOL     1     -52.364   3.493  12.859  1.00  0.00     0.146 C 
BRANCH  37  50
HETATM   50  C   MOL     1     -53.800  -1.502  16.191  1.00  0.00     0.297 C 
HETATM   51  O   MOL     1     -53.694  -1.061  17.531  1.00  0.00    -0.188 OA
HETATM   52  O   MOL     1     -52.645  -2.151  16.687  1.00  0.00    -0.188 OA
ENDBRANCH  37  50
BRANCH  38  53
HETATM   53  O   MOL     1     -53.553   1.251  16.792  1.00  0.00    -0.395 OA
HETATM   54  H   MOL     1     -52.404   1.002  16.837  1.00  0.00     0.210 HD
ENDBRANCH  38  53
BRANCH  47  55
HETATM   55  O   MOL     1     -49.797   2.415  13.250  1.00  0.00    -0.393 OA
HETATM   56  H   MOL     1     -50.163   1.296  13.249  1.00  0.00     0.210 HD
ENDBRANCH  47  55
BRANCH  48  57
HETATM   57  O   MOL     1     -51.503   3.041  11.082  1.00  0.00    -0.392 OA
HETATM   58  H   MOL     1     -52.598   3.038  11.515  1.00  0.00     0.210 HD
ENDBRANCH  48  57
BRANCH  49  59
HETATM   59  O   MOL     1     -52.265   4.842  13.125  1.00  0.00    -0.399 OA
HETATM   60  H   MOL     1     -52.737   4.610  12.073  1.00  0.00     0.209 HD
ENDBRANCH  49  59
BRANCH  45  61
HETATM   61  C   MOL     1     -54.251   2.828  13.183  1.00  0.00     0.292 C 
HETATM   62  O   MOL     1     -53.933   4.128  12.726  1.00  0.00    -0.188 OA
HETATM   63  O   MOL     1     -54.282   3.630  14.347  1.00  0.00    -0.188 OA
ENDBRANCH  45  61
ENDBRANCH   1  35
TORSDOF 8
ENDMDL
MODEL 4
REMARK VINA RESULT:     -10.5      2.647      4.682
REMARK  8 active torsions:
REMARK  status: ('A' for Active; 'I' for Inactive)
REMARK    1  A    between atoms: O_1  and  C_33 
REMARK    2  A    between atoms: O_1  and  C_49 
REMARK    3  A    between atoms: O_8  and  C_53 
REMARK    4  A    between atoms: O_12  and  C_56 
REMARK    5  A    between atoms: O_13  and  C_57 
REMARK    6  A    between atoms: O_14  and  C_59 
REMARK    7  A    between atoms: C_52  and  C_55 
REMARK    8  A    between atoms: C_58  and  C_60 
ROOT
HETATM    1  O   MOL     1     -47.039  -2.479  16.597  1.00  0.00     0.000 OA
ENDROOT
BRANCH   1   2
HETATM    2  C   MOL     1     -46.594  -1.870  17.256  1.00  0.00     0.007 C 
HETATM    3  C   MOL     1     -45.601  -1.481  17.050  1.00  0.00    -0.058 C 
HETATM    4  C   MOL     1     -45.328  -0.397  17.473  1.00  0.00    -0.007 C 
HETATM    5  C   MOL     1     -44.768  -1.478  16.497  1.00  0.00     0.027 C 
HETATM    6  C   MOL     1     -45.548  -2.040  16.223  1.00  0.00    -0.005 C 
HETATM    7  C   MOL     1     -45.654  -0.475  18.603  1.00  0.00    -0.037 A 
HETATM    8  C   MOL     1     -44.177  -0.442  17.570  1.00  0.00     0.006 C 
HETATM    9  C   MOL     1     -45.396   0.618  18.957  1.00  0.00     0.013 A 
HETATM   10  C   MOL     1     -46.683  -0.774  18.774  1.00  0.00     0.014 C 
HETATM   11  C   MOL     1     -45.814  -0.871  19.914  1.00  0.00     0.081 C 
HETATM   12  C   MOL     1     -45.724   0.561  20.025  1.00  0.00    -0.024 A 
HETATM   13  C   MOL     1     -44.266   0.522  19.089  1.00  0.00    -0.033 A 
HETATM   14  C   MOL     1     -43.879   1.246  19.669  1.00  0.00    -0.030 A 
HETATM   15  C   MOL     1     -43.743   0.232  18.236  1.00  0.00     0.011 C 
HETATM   16  C   MOL     1     -43.032  -0.089  19.163  1.00  0.00     0.044 C 
HETATM   17  C   MOL     1     -44.369   1.532  20.494  1.00  0.00    -0.018 A 
HETATM   18  C   MOL     1     -43.761   1.824  21.432  1.00  0.00    -0.002 C 
HETATM   19  C   MOL     1     -45.300   1.209  20.659  1.00  0.00    -0.036 C 
HETATM   20  C   MOL     1     -42.889   1.536  19.512  1.00  0.00     0.041 A 
HETATM   21  C   MOL     1     -42.952   2.509  21.025  1.00  0.00    -0.059 C 
HETATM   22  C   MOL     1     -44.512   2.543  22.022  1.00  0.00     0.003 C 
HETATM   23  C   MOL     1     -42.441   2.210  20.167  1.00  0.00     0.009 C 
HETATM   24  C   MOL     1     -42.504   3.250  21.682  1.00  0.00     0.014 C 
HETATM   25  C   MOL     1     -41.679   2.113  21.379  1.00  0.00     0.028 C 
HETATM   26  C   MOL     1     -43.055   3.601  22.548  1.00  0.00     0.253 A 
HETATM   27  C   MOL     1     -44.084   3.283  22.692  1.00  0.00     0.003 A 
HETATM   28  O   MOL     1     -43.349   4.366  23.827  1.00  0.00    -0.382 OA
HETATM   29  C   MOL     1     -45.261   4.000  22.729  1.00  0.00     0.044 C 
HETATM   30  C   MOL     1     -44.125   3.802  23.547  1.00  0.00     0.080 A 
HETATM   31  O   MOL     1     -44.961   3.795  24.095  1.00  0.00     0.000 OA
HETATM   32  C   MOL     1     -43.475   1.857  18.500  1.00  0.00     0.025 C 
HETATM   33  C   MOL     1     -47.157  -1.476  18.096  1.00  0.00    -0.012 C 
HETATM   34  O   MOL     1     -46.657   0.238  20.189  1.00  0.00     0.000 OA
ENDBRANCH   1   2
BRANCH   1  35
HETATM   35  C   MOL     1     -47.911  -2.913  16.825  1.00  0.00    -0.027 A 
HETATM   36  O   MOL     1     -47.921  -3.743  17.387  1.00  0.00     0.000 OA
HETATM   37  C   MOL     1     -48.778  -4.238  17.537  1.00  0.00     0.096 A 
HETATM   38  C   MOL     1     -49.641  -3.845  17.203  1.00  0.00     0.133 A 
HETATM   39  C   MOL     1     -49.609  -3.106  16.523  1.00  0.00     0.055 A 
HETATM   40  O   MOL     1     -50.316  -3.339  15.362  1.00  0.00     0.000 OA
HETATM   41  C   MOL     1     -48.759  -2.580  16.413  1.00  0.00     0.007 A 
HETATM   42  H   MOL     1     -51.000  -3.030  16.267  1.00  0.00     0.000 HD
HETATM   43  O   MOL     1     -50.447  -1.943  15.548  1.00  0.00     0.000 OA
HETATM   44  C   MOL     1     -49.575  -1.507  15.320  1.00  0.00     0.057 A 
HETATM   45  C   MOL     1     -51.287  -1.639  15.097  1.00  0.00     0.071 C 
HETATM   46  O   MOL     1     -48.735  -1.812  15.772  1.00  0.00     0.000 OA
HETATM   47  C   MOL     1     -49.573  -0.649  14.798  1.00  0.00     0.154 A 
HETATM   48  C   MOL     1     -50.406  -0.375  14.306  1.00  0.00     0.211 A 
HETATM   49  C   MOL     1     -51.285  -0.781  14.574  1.00  0.00     0.146 C 
BRANCH  37  50
HETATM   50  C   MOL     1     -48.654  -5.604  17.389  1.00  0.00     0.297 C 
HETATM   51  O   MOL     1     -48.946  -5.449  18.764  1.00  0.00    -0.188 OA
HETATM   52  O   MOL     1     -47.423  -5.225  17.972  1.00  0.00    -0.188 OA
ENDBRANCH  37  50
BRANCH  38  53
HETATM   53  O   MOL     1     -50.647  -3.743  18.141  1.00  0.00    -0.395 OA
HETATM   54  H   MOL     1     -50.417  -2.726  17.596  1.00  0.00     0.210 HD
ENDBRANCH  38  53
BRANCH  47  55
HETATM   55  O   MOL     1     -48.849   0.383  15.358  1.00  0.00    -0.393 OA
HETATM   56  H   MOL     1     -48.183  -0.535  15.045  1.00  0.00     0.210 HD
ENDBRANCH  47  55
BRANCH  48  57
HETATM   57  O   MOL     1     -50.247  -0.143  12.956  1.00  0.00    -0.392 OA
HETATM   58  H   MOL     1     -50.108  -1.273  13.252  1.00  0.00     0.210 HD
ENDBRANCH  48  57
BRANCH  49  59
HETATM   59  O   MOL     1     -52.274   0.120  14.911  1.00  0.00    -0.399 OA
HETATM   60  H   MOL     1     -52.611  -0.655  14.092  1.00  0.00     0.209 HD
ENDBRANCH  49  59
BRANCH  45  61
HETATM   61  C   MOL     1     -52.011  -2.672  14.537  1.00  0.00     0.292 C 
HETATM   62  O   MOL     1     -52.746  -1.521  14.169  1.00  0.00    -0.188 OA
HETATM   63  O   MOL     1     -52.755  -2.342  15.694  1.00  0.00    -0.188 OA
ENDBRANCH  45  61
ENDBRANCH   1  35
TORSDOF 8
ENDMDL
MODEL 5
REMARK VINA RESULT:     -10.4      3.604      7.304
REMARK  8 active torsions:
REMARK  status: ('A' for Active; 'I' for Inactive)
REMARK    1  A    between atoms: O_1  and  C_33 
REMARK    2  A    between atoms: O_1  and  C_49 
REMARK    3  A    between atoms: O_8  and  C_53 
REMARK    4  A    between atoms: O_12  and  C_56 
REMARK    5  A    between atoms: O_13  and  C_57 
REMARK    6  A    between atoms: O_14  and  C_59 
REMARK    7  A    between atoms: C_52  and  C_55 
REMARK    8  A    between atoms: C_58  and  C_60 
ROOT
HETATM    1  O   MOL     1     -50.481  -0.979  14.690  1.00  0.00     0.000 OA
ENDROOT
BRANCH   1   2
HETATM    2  C   MOL     1     -49.658  -0.919  15.258  1.00  0.00     0.007 C 
HETATM    3  C   MOL     1     -48.756  -1.448  14.963  1.00  0.00    -0.058 C 
HETATM    4  C   MOL     1     -47.705  -0.961  15.255  1.00  0.00    -0.007 C 
HETATM    5  C   MOL     1     -48.291  -2.106  14.371  1.00  0.00     0.027 C 
HETATM    6  C   MOL     1     -49.246  -1.865  14.197  1.00  0.00    -0.005 C 
HETATM    7  C   MOL     1     -47.842  -0.727  16.401  1.00  0.00    -0.037 A 
HETATM    8  C   MOL     1     -47.001  -1.877  15.298  1.00  0.00     0.006 C 
HETATM    9  C   MOL     1     -46.800  -0.224  16.625  1.00  0.00     0.013 A 
HETATM   10  C   MOL     1     -48.701  -0.114  16.655  1.00  0.00     0.014 C 
HETATM   11  C   MOL     1     -48.097  -0.816  17.754  1.00  0.00     0.081 C 
HETATM   12  C   MOL     1     -46.930   0.024  17.708  1.00  0.00    -0.024 A 
HETATM   13  C   MOL     1     -46.145  -1.155  16.709  1.00  0.00    -0.033 A 
HETATM   14  C   MOL     1     -45.280  -0.981  17.189  1.00  0.00    -0.030 A 
HETATM   15  C   MOL     1     -46.134  -1.767  15.866  1.00  0.00     0.011 C 
HETATM   16  C   MOL     1     -45.827  -2.495  16.786  1.00  0.00     0.044 C 
HETATM   17  C   MOL     1     -45.276  -0.398  18.003  1.00  0.00    -0.018 A 
HETATM   18  C   MOL     1     -44.562  -0.656  18.873  1.00  0.00    -0.002 C 
HETATM   19  C   MOL     1     -46.094   0.123  18.247  1.00  0.00    -0.036 C 
HETATM   20  C   MOL     1     -44.450  -1.568  16.953  1.00  0.00     0.041 A 
HETATM   21  C   MOL     1     -43.572  -0.860  18.357  1.00  0.00    -0.059 C 
HETATM   22  C   MOL     1     -44.418   0.396  19.421  1.00  0.00     0.003 C 
HETATM   23  C   MOL     1     -43.576  -1.469  17.510  1.00  0.00     0.009 C 
HETATM   24  C   MOL     1     -42.646  -0.720  18.908  1.00  0.00     0.014 C 
HETATM   25  C   MOL     1     -43.032  -2.086  18.685  1.00  0.00     0.028 C 
HETATM   26  C   MOL     1     -42.627  -0.047  19.758  1.00  0.00     0.253 A 
HETATM   27  C   MOL     1     -43.504   0.552  19.987  1.00  0.00     0.003 A 
HETATM   28  O   MOL     1     -42.080   0.701  20.963  1.00  0.00    -0.382 OA
HETATM   29  C   MOL     1     -43.693   1.918  20.007  1.00  0.00     0.044 C 
HETATM   30  C   MOL     1     -43.035   0.936  20.783  1.00  0.00     0.080 A 
HETATM   31  O   MOL     1     -43.506   1.594  21.371  1.00  0.00     0.000 OA
HETATM   32  C   MOL     1     -44.689  -0.939  15.944  1.00  0.00     0.025 C 
HETATM   33  C   MOL     1     -49.616  -0.211  16.079  1.00  0.00    -0.012 C 
HETATM   34  O   MOL     1     -47.748   0.545  17.952  1.00  0.00     0.000 OA
ENDBRANCH   1   2
BRANCH   1  35
HETATM   35  C   MOL     1     -51.378  -1.098  15.118  1.00  0.00    -0.027 A 
HETATM   36  O   MOL     1     -51.585  -1.947  15.609  1.00  0.00     0.000 OA
HETATM   37  C   MOL     1     -52.510  -2.114  15.953  1.00  0.00     0.096 A 
HETATM   38  C   MOL     1     -53.201  -1.387  15.890  1.00  0.00     0.133 A 
HETATM   39  C   MOL     1     -53.036  -0.610  15.274  1.00  0.00     0.055 A 
HETATM   40  O   MOL     1     -54.019  -0.380  14.335  1.00  0.00     0.000 OA
HETATM   41  C   MOL     1     -52.096  -0.418  14.971  1.00  0.00     0.007 A 
HETATM   42  H   MOL     1     -54.304   0.006  15.409  1.00  0.00     0.000 HD
HETATM   43  O   MOL     1     -53.546   0.919  14.637  1.00  0.00     0.000 OA
HETATM   44  C   MOL     1     -52.649   1.039  14.209  1.00  0.00     0.057 A 
HETATM   45  C   MOL     1     -54.278   1.576  14.449  1.00  0.00     0.071 C 
HETATM   46  O   MOL     1     -51.917   0.382  14.398  1.00  0.00     0.000 OA
HETATM   47  C   MOL     1     -52.428   1.911  13.760  1.00  0.00     0.154 A 
HETATM   48  C   MOL     1     -53.174   2.544  13.530  1.00  0.00     0.211 A 
HETATM   49  C   MOL     1     -54.057   2.447  14.000  1.00  0.00     0.146 C 
BRANCH  37  50
HETATM   50  C   MOL     1     -52.969  -3.389  15.692  1.00  0.00     0.297 C 
HETATM   51  O   MOL     1     -53.030  -3.302  17.102  1.00  0.00    -0.188 OA
HETATM   52  O   MOL     1     -51.637  -3.602  16.118  1.00  0.00    -0.188 OA
ENDBRANCH  37  50
BRANCH  38  53
HETATM   53  O   MOL     1     -53.847  -1.080  17.070  1.00  0.00    -0.395 OA
HETATM   54  H   MOL     1     -52.904  -1.767  17.222  1.00  0.00     0.210 HD
ENDBRANCH  38  53
BRANCH  47  55
HETATM   55  O   MOL     1     -51.251   2.505  14.168  1.00  0.00    -0.393 OA
HETATM   56  H   MOL     1     -52.167   2.767  14.858  1.00  0.00     0.210 HD
ENDBRANCH  47  55
BRANCH  48  57
HETATM   57  O   MOL     1     -53.246   2.918  12.205  1.00  0.00    -0.392 OA
HETATM   58  H   MOL     1     -54.268   2.520  12.631  1.00  0.00     0.210 HD
ENDBRANCH  48  57
BRANCH  49  59
HETATM   59  O   MOL     1     -54.510   3.578  14.647  1.00  0.00    -0.399 OA
HETATM   60  H   MOL     1     -54.775   2.582  15.214  1.00  0.00     0.209 HD
ENDBRANCH  49  59
BRANCH  45  61
HETATM   61  C   MOL     1     -55.455   0.981  14.042  1.00  0.00     0.292 C 
HETATM   62  O   MOL     1     -55.757   2.362  14.004  1.00  0.00    -0.188 OA
HETATM   63  O   MOL     1     -55.712   1.324  15.390  1.00  0.00    -0.188 OA
ENDBRANCH  45  61
ENDBRANCH   1  35
TORSDOF 8
ENDMDL
MODEL 6
REMARK VINA RESULT:      -9.9      1.257      2.852
REMARK  8 active torsions:
REMARK  status: ('A' for Active; 'I' for Inactive)
REMARK    1  A    between atoms: O_1  and  C_33 
REMARK    2  A    between atoms: O_1  and  C_49 
REMARK    3  A    between atoms: O_8  and  C_53 
REMARK    4  A    between atoms: O_12  and  C_56 
REMARK    5  A    between atoms: O_13  and  C_57 
REMARK    6  A    between atoms: O_14  and  C_59 
REMARK    7  A    between atoms: C_52  and  C_55 
REMARK    8  A    between atoms: C_58  and  C_60 
ROOT
HETATM    1  O   MOL     1     -45.740  -1.024  18.388  1.00  0.00     0.000 OA
ENDROOT
BRANCH   1   2
HETATM    2  C   MOL     1     -45.059  -0.347  18.672  1.00  0.00     0.007 C 
HETATM    3  C   MOL     1     -44.412  -0.550  19.520  1.00  0.00    -0.058 C 
HETATM    4  C   MOL     1     -43.311  -0.085  19.506  1.00  0.00    -0.007 C 
HETATM    5  C   MOL     1     -44.167  -1.115  20.308  1.00  0.00     0.027 C 
HETATM    6  C   MOL     1     -44.906  -1.401  19.699  1.00  0.00    -0.005 C 
HETATM    7  C   MOL     1     -43.515   1.044  19.241  1.00  0.00    -0.037 A 
HETATM    8  C   MOL     1     -43.051  -0.007  20.629  1.00  0.00     0.006 C 
HETATM    9  C   MOL     1     -42.406   1.441  19.208  1.00  0.00     0.013 A 
HETATM   10  C   MOL     1     -44.083   1.218  18.333  1.00  0.00     0.014 C 
HETATM   11  C   MOL     1     -43.987   2.340  19.225  1.00  0.00     0.081 C 
HETATM   12  C   MOL     1     -42.587   2.510  18.934  1.00  0.00    -0.024 A 
HETATM   13  C   MOL     1     -42.202   1.552  20.325  1.00  0.00    -0.033 A 
HETATM   14  C   MOL     1     -41.423   2.156  20.521  1.00  0.00    -0.030 A 
HETATM   15  C   MOL     1     -42.310   0.680  20.885  1.00  0.00     0.011 C 
HETATM   16  C   MOL     1     -42.464   1.582  21.679  1.00  0.00     0.044 C 
HETATM   17  C   MOL     1     -41.309   3.000  19.994  1.00  0.00    -0.018 A 
HETATM   18  C   MOL     1     -40.899   3.940  20.525  1.00  0.00    -0.002 C 
HETATM   19  C   MOL     1     -41.874   3.164  19.186  1.00  0.00    -0.036 C 
HETATM   20  C   MOL     1     -40.874   1.997  21.393  1.00  0.00     0.041 A 
HETATM   21  C   MOL     1     -40.009   3.551  21.112  1.00  0.00    -0.059 C 
HETATM   22  C   MOL     1     -40.429   4.570  19.626  1.00  0.00     0.003 C 
HETATM   23  C   MOL     1     -40.129   2.673  21.662  1.00  0.00     0.009 C 
HETATM   24  C   MOL     1     -39.200   4.231  21.364  1.00  0.00     0.014 C 
HETATM   25  C   MOL     1     -40.064   3.869  22.453  1.00  0.00     0.028 C 
HETATM   26  C   MOL     1     -39.041   5.119  20.761  1.00  0.00     0.253 A 
HETATM   27  C   MOL     1     -39.627   5.265  19.858  1.00  0.00     0.003 A 
HETATM   28  O   MOL     1     -38.429   6.434  20.307  1.00  0.00    -0.382 OA
HETATM   29  C   MOL     1     -39.252   5.350  18.533  1.00  0.00     0.044 C 
HETATM   30  C   MOL     1     -39.170   6.141  19.702  1.00  0.00     0.080 A 
HETATM   31  O   MOL     1     -39.420   6.702  18.912  1.00  0.00     0.000 OA
HETATM   32  C   MOL     1     -40.683   1.009  20.717  1.00  0.00     0.025 C 
HETATM   33  C   MOL     1     -44.861   0.518  18.046  1.00  0.00    -0.012 C 
HETATM   34  O   MOL     1     -43.154   2.674  18.125  1.00  0.00     0.000 OA
ENDBRANCH   1   2
BRANCH   1  35
HETATM   35  C   MOL     1     -45.834  -1.267  17.422  1.00  0.00    -0.027 A 
HETATM   36  O   MOL     1     -45.017  -1.474  16.880  1.00  0.00     0.000 OA
HETATM   37  C   MOL     1     -45.094  -1.621  15.893  1.00  0.00     0.096 A 
HETATM   38  C   MOL     1     -46.004  -1.658  15.468  1.00  0.00     0.133 A 
HETATM   39  C   MOL     1     -46.795  -1.307  15.978  1.00  0.00     0.055 A 
HETATM   40  O   MOL     1     -47.529  -0.332  15.335  1.00  0.00     0.000 OA
HETATM   41  C   MOL     1     -46.727  -1.208  16.977  1.00  0.00     0.007 A 
HETATM   42  H   MOL     1     -47.750  -1.417  14.937  1.00  0.00     0.000 HD
HETATM   43  O   MOL     1     -48.505  -1.041  16.074  1.00  0.00     0.000 OA
HETATM   44  C   MOL     1     -48.412  -0.797  17.041  1.00  0.00     0.057 A 
HETATM   45  C   MOL     1     -49.390  -0.933  15.618  1.00  0.00     0.071 C 
HETATM   46  O   MOL     1     -47.526  -0.905  17.496  1.00  0.00     0.000 OA
HETATM   47  C   MOL     1     -49.236  -0.638  17.593  1.00  0.00     0.154 A 
HETATM   48  C   MOL     1     -50.113  -0.482  17.126  1.00  0.00     0.211 A 
HETATM   49  C   MOL     1     -50.215  -0.774  16.170  1.00  0.00     0.146 C 
BRANCH  37  50
HETATM   50  C   MOL     1     -44.127  -0.961  15.164  1.00  0.00     0.297 C 
HETATM   51  O   MOL     1     -44.209  -2.222  14.529  1.00  0.00    -0.188 OA
HETATM   52  O   MOL     1     -43.376  -1.825  15.995  1.00  0.00    -0.188 OA
ENDBRANCH  37  50
BRANCH  38  53
HETATM   53  O   MOL     1     -46.248  -2.770  14.688  1.00  0.00    -0.395 OA
HETATM   54  H   MOL     1     -45.209  -2.266  14.465  1.00  0.00     0.210 HD
ENDBRANCH  38  53
BRANCH  47  55
HETATM   55  O   MOL     1     -49.311  -1.358  18.767  1.00  0.00    -0.393 OA
HETATM   56  H   MOL     1     -49.874  -0.327  18.819  1.00  0.00     0.210 HD
ENDBRANCH  47  55
BRANCH  48  57
HETATM   57  O   MOL     1     -50.761   0.688  17.460  1.00  0.00    -0.392 OA
HETATM   58  H   MOL     1     -49.623   0.687  17.759  1.00  0.00     0.210 HD
ENDBRANCH  48  57
BRANCH  49  59
HETATM   59  O   MOL     1     -51.267  -1.630  15.921  1.00  0.00    -0.399 OA
HETATM   60  H   MOL     1     -51.413  -0.565  15.445  1.00  0.00     0.209 HD
ENDBRANCH  49  59
BRANCH  45  61
HETATM   61  C   MOL     1     -49.315  -0.213  14.443  1.00  0.00     0.292 C 
HETATM   62  O   MOL     1     -50.692  -0.519  14.551  1.00  0.00    -0.188 OA
HETATM   63  O   MOL     1     -49.416  -1.552  13.999  1.00  0.00    -0.188 OA
ENDBRANCH  45  61
ENDBRANCH   1  35
TORSDOF 8
ENDMDL
MODEL 7
REMARK VINA RESULT:      -9.6      3.385      7.095
REMARK  8 active torsions:
REMARK  status: ('A' for Active; 'I' for Inactive)
REMARK    1  A    between atoms: O_1  and  C_33 
REMARK    2  A    between atoms: O_1  and  C_49 
REMARK    3  A    between atoms: O_8  and  C_53 
REMARK    4  A    between atoms: O_12  and  C_56 
REMARK    5  A    between atoms: O_13  and  C_57 
REMARK    6  A    between atoms: O_14  and  C_59 
REMARK    7  A    between atoms: C_52  and  C_55 
REMARK    8  A    between atoms: C_58  and  C_60 
ROOT
HETATM    1  O   MOL     1     -50.130  -1.592  14.263  1.00  0.00     0.000 OA
ENDROOT
BRANCH   1   2
HETATM    2  C   MOL     1     -49.361  -1.427  14.882  1.00  0.00     0.007 C 
HETATM    3  C   MOL     1     -48.455  -2.019  14.791  1.00  0.00    -0.058 C 
HETATM    4  C   MOL     1     -47.418  -1.498  15.075  1.00  0.00    -0.007 C 
HETATM    5  C   MOL     1     -47.961  -2.795  14.398  1.00  0.00     0.027 C 
HETATM    6  C   MOL     1     -48.887  -2.582  14.087  1.00  0.00    -0.005 C 
HETATM    7  C   MOL     1     -47.649  -1.025  16.128  1.00  0.00    -0.037 A 
HETATM    8  C   MOL     1     -46.753  -2.395  15.376  1.00  0.00     0.006 C 
HETATM    9  C   MOL     1     -46.615  -0.502  16.341  1.00  0.00     0.013 A 
HETATM   10  C   MOL     1     -48.506  -0.359  16.164  1.00  0.00     0.014 C 
HETATM   11  C   MOL     1     -48.029  -0.822  17.438  1.00  0.00     0.081 C 
HETATM   12  C   MOL     1     -46.833  -0.029  17.330  1.00  0.00    -0.024 A 
HETATM   13  C   MOL     1     -46.004  -1.404  16.680  1.00  0.00    -0.033 A 
HETATM   14  C   MOL     1     -45.179  -1.146  17.193  1.00  0.00    -0.030 A 
HETATM   15  C   MOL     1     -45.938  -2.181  15.989  1.00  0.00     0.011 C 
HETATM   16  C   MOL     1     -45.741  -2.702  17.065  1.00  0.00     0.044 C 
HETATM   17  C   MOL     1     -45.229  -0.403  17.864  1.00  0.00    -0.018 A 
HETATM   18  C   MOL     1     -44.606  -0.483  18.833  1.00  0.00    -0.002 C 
HETATM   19  C   MOL     1     -46.046   0.170  17.914  1.00  0.00    -0.036 C 
HETATM   20  C   MOL     1     -44.353  -1.782  17.166  1.00  0.00     0.041 A 
HETATM   21  C   MOL     1     -43.581  -0.807  18.468  1.00  0.00    -0.059 C 
HETATM   22  C   MOL     1     -44.475   0.659  19.160  1.00  0.00     0.003 C 
HETATM   23  C   MOL     1     -43.530  -1.581  17.771  1.00  0.00     0.009 C 
HETATM   24  C   MOL     1     -42.704  -0.568  19.063  1.00  0.00     0.014 C 
HETATM   25  C   MOL     1     -43.117  -1.943  19.096  1.00  0.00     0.028 C 
HETATM   26  C   MOL     1     -42.738   0.270  19.752  1.00  0.00     0.253 A 
HETATM   27  C   MOL     1     -43.611   0.917  19.765  1.00  0.00     0.003 A 
HETATM   28  O   MOL     1     -42.277   1.247  20.821  1.00  0.00    -0.382 OA
HETATM   29  C   MOL     1     -43.753   2.260  19.481  1.00  0.00     0.044 C 
HETATM   30  C   MOL     1     -43.203   1.454  20.505  1.00  0.00     0.080 A 
HETATM   31  O   MOL     1     -43.701   2.229  20.894  1.00  0.00     0.000 OA
HETATM   32  C   MOL     1     -44.477  -1.377  16.030  1.00  0.00     0.025 C 
HETATM   33  C   MOL     1     -49.368  -0.561  15.537  1.00  0.00    -0.012 C 
HETATM   34  O   MOL     1     -47.652   0.545  17.380  1.00  0.00     0.000 OA
ENDBRANCH   1   2
BRANCH   1  35
HETATM   35  C   MOL     1     -51.002  -1.124  14.410  1.00  0.00    -0.027 A 
HETATM   36  O   MOL     1     -51.110  -0.171  14.118  1.00  0.00     0.000 OA
HETATM   37  C   MOL     1     -51.943   0.334  14.349  1.00  0.00     0.096 A 
HETATM   38  C   MOL     1     -52.708  -0.149  14.788  1.00  0.00     0.133 A 
HETATM   39  C   MOL     1     -52.542  -1.047  15.207  1.00  0.00     0.055 A 
HETATM   40  O   MOL     1     -52.895  -1.155  16.536  1.00  0.00     0.000 OA
HETATM   41  C   MOL     1     -51.728  -1.571  14.933  1.00  0.00     0.007 A 
HETATM   42  H   MOL     1     -53.815  -1.210  15.806  1.00  0.00     0.000 HD
HETATM   43  O   MOL     1     -53.159  -2.446  16.023  1.00  0.00     0.000 OA
HETATM   44  C   MOL     1     -52.287  -2.915  15.876  1.00  0.00     0.057 A 
HETATM   45  C   MOL     1     -53.865  -2.875  16.589  1.00  0.00     0.071 C 
HETATM   46  O   MOL     1     -51.582  -2.486  15.310  1.00  0.00     0.000 OA
HETATM   47  C   MOL     1     -52.199  -3.885  16.125  1.00  0.00     0.154 A 
HETATM   48  C   MOL     1     -52.886  -4.296  16.734  1.00  0.00     0.211 A 
HETATM   49  C   MOL     1     -53.777  -3.845  16.838  1.00  0.00     0.146 C 
BRANCH  37  50
HETATM   50  C   MOL     1     -51.698   1.606  14.821  1.00  0.00     0.297 C 
HETATM   51  O   MOL     1     -52.733   1.802  13.877  1.00  0.00    -0.188 OA
HETATM   52  O   MOL     1     -51.042   1.590  13.568  1.00  0.00    -0.188 OA
ENDBRANCH  37  50
BRANCH  38  53
HETATM   53  O   MOL     1     -53.933  -0.001  14.172  1.00  0.00    -0.395 OA
HETATM   54  H   MOL     1     -53.279  -0.860  13.704  1.00  0.00     0.210 HD
ENDBRANCH  38  53
BRANCH  47  55
HETATM   55  O   MOL     1     -51.719  -4.711  15.131  1.00  0.00    -0.393 OA
HETATM   56  H   MOL     1     -52.134  -3.688  14.724  1.00  0.00     0.210 HD
ENDBRANCH  47  55
BRANCH  48  57
HETATM   57  O   MOL     1     -52.386  -4.891  17.874  1.00  0.00    -0.392 OA
HETATM   58  H   MOL     1     -52.308  -5.576  16.920  1.00  0.00     0.210 HD
ENDBRANCH  48  57
BRANCH  49  59
HETATM   59  O   MOL     1     -54.875  -4.630  16.556  1.00  0.00    -0.399 OA
HETATM   60  H   MOL     1     -55.121  -3.730  17.272  1.00  0.00     0.209 HD
ENDBRANCH  49  59
BRANCH  45  61
HETATM   61  C   MOL     1     -54.346  -2.048  17.583  1.00  0.00     0.292 C 
HETATM   62  O   MOL     1     -55.063  -3.250  17.784  1.00  0.00    -0.188 OA
HETATM   63  O   MOL     1     -55.370  -2.015  16.609  1.00  0.00    -0.188 OA
ENDBRANCH  45  61
ENDBRANCH   1  35
TORSDOF 8
ENDMDL
MODEL 8
REMARK VINA RESULT:      -9.4      2.767      4.802
REMARK  8 active torsions:
REMARK  status: ('A' for Active; 'I' for Inactive)
REMARK    1  A    between atoms: O_1  and  C_33 
REMARK    2  A    between atoms: O_1  and  C_49 
REMARK    3  A    between atoms: O_8  and  C_53 
REMARK    4  A    between atoms: O_12  and  C_56 
REMARK    5  A    between atoms: O_13  and  C_57 
REMARK    6  A    between atoms: O_14  and  C_59 
REMARK    7  A    between atoms: C_52  and  C_55 
REMARK    8  A    between atoms: C_58  and  C_60 
ROOT
HETATM    1  O   MOL     1     -45.989  -2.793  17.157  1.00  0.00     0.000 OA
ENDROOT
BRANCH   1   2
HETATM    2  C   MOL     1     -45.741  -2.079  17.813  1.00  0.00     0.007 C 
HETATM    3  C   MOL     1     -44.726  -1.694  17.838  1.00  0.00    -0.058 C 
HETATM    4  C   MOL     1     -44.571  -0.551  18.151  1.00  0.00    -0.007 C 
HETATM    5  C   MOL     1     -43.770  -1.747  17.548  1.00  0.00     0.027 C 
HETATM    6  C   MOL     1     -44.448  -2.368  17.154  1.00  0.00    -0.005 C 
HETATM    7  C   MOL     1     -45.203  -0.470  19.142  1.00  0.00    -0.037 A 
HETATM    8  C   MOL     1     -43.495  -0.544  18.574  1.00  0.00     0.006 C 
HETATM    9  C   MOL     1     -45.043   0.672  19.384  1.00  0.00     0.013 A 
HETATM   10  C   MOL     1     -46.242  -0.771  19.060  1.00  0.00     0.014 C 
HETATM   11  C   MOL     1     -45.732  -0.670  20.400  1.00  0.00     0.081 C 
HETATM   12  C   MOL     1     -45.660   0.765  20.312  1.00  0.00    -0.024 A 
HETATM   13  C   MOL     1     -43.998   0.633  19.841  1.00  0.00    -0.033 A 
HETATM   14  C   MOL     1     -43.781   1.447  20.389  1.00  0.00    -0.030 A 
HETATM   15  C   MOL     1     -43.258   0.236  19.224  1.00  0.00     0.011 C 
HETATM   16  C   MOL     1     -42.843   0.079  20.351  1.00  0.00     0.044 C 
HETATM   17  C   MOL     1     -44.481   1.837  20.990  1.00  0.00    -0.018 A 
HETATM   18  C   MOL     1     -44.160   2.285  22.005  1.00  0.00    -0.002 C 
HETATM   19  C   MOL     1     -45.425   1.513  20.933  1.00  0.00    -0.036 C 
HETATM   20  C   MOL     1     -42.784   1.741  20.474  1.00  0.00     0.041 A 
HETATM   21  C   MOL     1     -43.261   2.927  21.743  1.00  0.00    -0.059 C 
HETATM   22  C   MOL     1     -45.038   3.060  22.243  1.00  0.00     0.003 C 
HETATM   23  C   MOL     1     -42.532   2.519  21.119  1.00  0.00     0.009 C 
HETATM   24  C   MOL     1     -43.008   3.771  22.378  1.00  0.00     0.014 C 
HETATM   25  C   MOL     1     -42.145   2.628  22.496  1.00  0.00     0.028 C 
HETATM   26  C   MOL     1     -43.777   4.230  22.990  1.00  0.00     0.253 A 
HETATM   27  C   MOL     1     -44.809   3.905  22.886  1.00  0.00     0.003 A 
HETATM   28  O   MOL     1     -44.412   5.168  24.004  1.00  0.00    -0.382 OA
HETATM   29  C   MOL     1     -45.940   4.582  22.481  1.00  0.00     0.044 C 
HETATM   30  C   MOL     1     -45.084   4.544  23.605  1.00  0.00     0.080 A 
HETATM   31  O   MOL     1     -46.041   4.592  23.891  1.00  0.00     0.000 OA
HETATM   32  C   MOL     1     -43.057   1.889  19.302  1.00  0.00     0.025 C 
HETATM   33  C   MOL     1     -46.514  -1.582  18.392  1.00  0.00    -0.012 C 
HETATM   34  O   MOL     1     -46.605   0.440  20.254  1.00  0.00     0.000 OA
ENDBRANCH   1   2
BRANCH   1  35
HETATM   35  C   MOL     1     -46.780  -2.671  16.557  1.00  0.00    -0.027 A 
HETATM   36  O   MOL     1     -46.827  -1.874  15.951  1.00  0.00     0.000 OA
HETATM   37  C   MOL     1     -47.657  -1.693  15.422  1.00  0.00     0.096 A 
HETATM   38  C   MOL     1     -48.403  -2.367  15.426  1.00  0.00     0.133 A 
HETATM   39  C   MOL     1     -48.415  -3.076  16.138  1.00  0.00     0.055 A 
HETATM   40  O   MOL     1     -49.568  -3.139  16.891  1.00  0.00     0.000 OA
HETATM   41  C   MOL     1     -47.564  -3.287  16.632  1.00  0.00     0.007 A 
HETATM   42  H   MOL     1     -49.682  -3.627  15.828  1.00  0.00     0.000 HD
HETATM   43  O   MOL     1     -49.152  -4.489  16.818  1.00  0.00     0.000 OA
HETATM   44  C   MOL     1     -48.361  -4.612  17.419  1.00  0.00     0.057 A 
HETATM   45  C   MOL     1     -49.956  -5.076  16.929  1.00  0.00     0.071 C 
HETATM   46  O   MOL     1     -47.558  -4.025  17.307  1.00  0.00     0.000 OA
HETATM   47  C   MOL     1     -48.295  -5.438  17.987  1.00  0.00     0.154 A 
HETATM   48  C   MOL     1     -49.118  -5.996  18.134  1.00  0.00     0.211 A 
HETATM   49  C   MOL     1     -49.891  -5.902  17.498  1.00  0.00     0.146 C 
BRANCH  37  50
HETATM   50  C   MOL     1     -48.053  -0.372  15.461  1.00  0.00     0.297 C 
HETATM   51  O   MOL     1     -47.998  -0.656  14.076  1.00  0.00    -0.188 OA
HETATM   52  O   MOL     1     -46.678  -0.291  15.138  1.00  0.00    -0.188 OA
ENDBRANCH  37  50
BRANCH  38  53
HETATM   53  O   MOL     1     -48.844  -2.768  14.182  1.00  0.00    -0.395 OA
HETATM   54  H   MOL     1     -49.519  -1.935  14.668  1.00  0.00     0.210 HD
ENDBRANCH  38  53
BRANCH  47  55
HETATM   55  O   MOL     1     -47.115  -6.143  17.874  1.00  0.00    -0.393 OA
HETATM   56  H   MOL     1     -47.040  -5.043  17.464  1.00  0.00     0.210 HD
ENDBRANCH  47  55
BRANCH  48  57
HETATM   57  O   MOL     1     -49.461  -6.210  19.453  1.00  0.00    -0.392 OA
HETATM   58  H   MOL     1     -49.186  -5.090  19.221  1.00  0.00     0.210 HD
ENDBRANCH  48  57
BRANCH  49  59
HETATM   59  O   MOL     1     -50.306  -7.071  16.894  1.00  0.00    -0.399 OA
HETATM   60  H   MOL     1     -49.211  -7.131  17.319  1.00  0.00     0.209 HD
ENDBRANCH  49  59
BRANCH  45  61
HETATM   61  C   MOL     1     -51.137  -4.371  17.042  1.00  0.00     0.292 C 
HETATM   62  O   MOL     1     -51.551  -5.718  17.151  1.00  0.00    -0.188 OA
HETATM   63  O   MOL     1     -51.165  -4.840  15.708  1.00  0.00    -0.188 OA
ENDBRANCH  45  61
ENDBRANCH   1  35
TORSDOF 8
ENDMDL
MODEL 9
REMARK VINA RESULT:      -8.7      4.943     13.109
REMARK  8 active torsions:
REMARK  status: ('A' for Active; 'I' for Inactive)
REMARK    1  A    between atoms: O_1  and  C_33 
REMARK    2  A    between atoms: O_1  and  C_49 
REMARK    3  A    between atoms: O_8  and  C_53 
REMARK    4  A    between atoms: O_12  and  C_56 
REMARK    5  A    between atoms: O_13  and  C_57 
REMARK    6  A    between atoms: O_14  and  C_59 
REMARK    7  A    between atoms: C_52  and  C_55 
REMARK    8  A    between atoms: C_58  and  C_60 
ROOT
HETATM    1  O   MOL     1     -49.852  -0.877  15.986  1.00  0.00     0.000 OA
ENDROOT
BRANCH   1   2
HETATM    2  C   MOL     1     -50.619  -1.505  15.846  1.00  0.00     0.007 C 
HETATM    3  C   MOL     1     -51.509  -1.167  15.323  1.00  0.00    -0.058 C 
HETATM    4  C   MOL     1     -52.117  -1.971  14.681  1.00  0.00    -0.007 C 
HETATM    5  C   MOL     1     -52.050  -0.429  14.919  1.00  0.00     0.027 C 
HETATM    6  C   MOL     1     -51.136  -0.240  15.277  1.00  0.00    -0.005 C 
HETATM    7  C   MOL     1     -52.244  -2.862  15.440  1.00  0.00    -0.037 A 
HETATM    8  C   MOL     1     -53.187  -1.534  14.669  1.00  0.00     0.006 C 
HETATM    9  C   MOL     1     -52.813  -3.629  14.750  1.00  0.00     0.013 A 
HETATM   10  C   MOL     1     -51.325  -3.242  15.874  1.00  0.00     0.014 C 
HETATM   11  C   MOL     1     -52.532  -3.632  16.547  1.00  0.00     0.081 C 
HETATM   12  C   MOL     1     -52.917  -4.489  15.457  1.00  0.00    -0.024 A 
HETATM   13  C   MOL     1     -53.868  -3.197  14.802  1.00  0.00    -0.033 A 
HETATM   14  C   MOL     1     -54.574  -3.858  14.531  1.00  0.00    -0.030 A 
HETATM   15  C   MOL     1     -53.959  -2.209  14.483  1.00  0.00     0.011 C 
HETATM   16  C   MOL     1     -54.901  -2.387  15.225  1.00  0.00     0.044 C 
HETATM   17  C   MOL     1     -54.501  -4.810  14.834  1.00  0.00    -0.018 A 
HETATM   18  C   MOL     1     -55.465  -5.388  15.099  1.00  0.00    -0.002 C 
HETATM   19  C   MOL     1     -53.662  -5.130  15.275  1.00  0.00    -0.036 C 
HETATM   20  C   MOL     1     -55.461  -3.500  14.115  1.00  0.00     0.041 A 
HETATM   21  C   MOL     1     -56.165  -5.153  14.236  1.00  0.00    -0.059 C 
HETATM   22  C   MOL     1     -55.144  -6.527  14.940  1.00  0.00     0.003 C 
HETATM   23  C   MOL     1     -56.241  -4.161  13.922  1.00  0.00     0.009 C 
HETATM   24  C   MOL     1     -56.958  -5.853  13.990  1.00  0.00     0.014 C 
HETATM   25  C   MOL     1     -57.380  -4.647  14.647  1.00  0.00     0.028 C 
HETATM   26  C   MOL     1     -56.857  -6.896  14.271  1.00  0.00     0.253 A 
HETATM   27  C   MOL     1     -55.924  -7.246  14.704  1.00  0.00     0.003 A 
HETATM   28  O   MOL     1     -57.224  -8.361  14.441  1.00  0.00    -0.382 OA
HETATM   29  C   MOL     1     -55.004  -8.172  14.258  1.00  0.00     0.044 C 
HETATM   30  C   MOL     1     -56.311  -8.164  14.798  1.00  0.00     0.080 A 
HETATM   31  O   MOL     1     -55.765  -8.897  15.204  1.00  0.00     0.000 OA
HETATM   32  C   MOL     1     -54.599  -3.211  13.313  1.00  0.00     0.025 C 
HETATM   33  C   MOL     1     -50.507  -2.559  16.079  1.00  0.00    -0.012 C 
HETATM   34  O   MOL     1     -52.078  -4.810  15.898  1.00  0.00     0.000 OA
ENDBRANCH   1   2
BRANCH   1  35
HETATM   35  C   MOL     1     -49.426  -0.796  16.887  1.00  0.00    -0.027 A 
HETATM   36  O   MOL     1     -49.985  -0.546  17.680  1.00  0.00     0.000 OA
HETATM   37  C   MOL     1     -49.551  -0.368  18.565  1.00  0.00     0.096 A 
HETATM   38  C   MOL     1     -48.567  -0.537  18.675  1.00  0.00     0.133 A 
HETATM   39  C   MOL     1     -47.995  -0.640  17.855  1.00  0.00     0.055 A 
HETATM   40  O   MOL     1     -46.918   0.218  17.772  1.00  0.00     0.000 OA
HETATM   41  C   MOL     1     -48.433  -0.868  16.979  1.00  0.00     0.007 A 
HETATM   42  H   MOL     1     -46.739  -0.680  18.510  1.00  0.00     0.000 HD
HETATM   43  O   MOL     1     -46.442  -0.962  17.154  1.00  0.00     0.000 OA
HETATM   44  C   MOL     1     -46.868  -1.042  16.251  1.00  0.00     0.057 A 
HETATM   45  C   MOL     1     -45.445  -0.984  17.237  1.00  0.00     0.071 C 
HETATM   46  O   MOL     1     -47.866  -1.020  16.170  1.00  0.00     0.000 OA
HETATM   47  C   MOL     1     -46.314  -1.341  15.468  1.00  0.00     0.154 A 
HETATM   48  C   MOL     1     -45.312  -1.315  15.542  1.00  0.00     0.211 A 
HETATM   49  C   MOL     1     -44.890  -1.283  16.454  1.00  0.00     0.146 C 
BRANCH  37  50
HETATM   50  C   MOL     1     -50.031   0.764  19.191  1.00  0.00     0.297 C 
HETATM   51  O   MOL     1     -50.238  -0.254  20.151  1.00  0.00    -0.188 OA
HETATM   52  O   MOL     1     -51.206   0.105  18.761  1.00  0.00    -0.188 OA
ENDBRANCH  37  50
BRANCH  38  53
HETATM   53  O   MOL     1     -48.220  -1.337  19.744  1.00  0.00    -0.395 OA
HETATM   54  H   MOL     1     -49.302  -0.884  19.835  1.00  0.00     0.210 HD
ENDBRANCH  38  53
BRANCH  47  55
HETATM   55  O   MOL     1     -46.827  -2.401  14.750  1.00  0.00    -0.393 OA
HETATM   56  H   MOL     1     -45.841  -2.670  15.334  1.00  0.00     0.210 HD
ENDBRANCH  47  55
BRANCH  48  57
HETATM   57  O   MOL     1     -44.665  -0.586  14.566  1.00  0.00    -0.392 OA
HETATM   58  H   MOL     1     -45.707  -1.007  14.217  1.00  0.00     0.210 HD
ENDBRANCH  48  57
BRANCH  49  59
HETATM   59  O   MOL     1     -43.980  -2.285  16.721  1.00  0.00    -0.399 OA
HETATM   60  H   MOL     1     -43.479  -1.234  16.557  1.00  0.00     0.209 HD
ENDBRANCH  49  59
BRANCH  45  61
HETATM   61  C   MOL     1     -44.932   0.075  17.957  1.00  0.00     0.292 C 
HETATM   62  O   MOL     1     -43.782  -0.671  17.610  1.00  0.00    -0.188 OA
HETATM   63  O   MOL     1     -44.909  -0.990  18.886  1.00  0.00    -0.188 OA
ENDBRANCH  45  61
ENDBRANCH   1  35
TORSDOF 8
ENDMDL
MODEL 10
REMARK VINA RESULT:      -8.5      4.362      7.363
REMARK  8 active torsions:
REMARK  status: ('A' for Active; 'I' for Inactive)
REMARK    1  A    between atoms: O_1  and  C_33 
REMARK    2  A    between atoms: O_1  and  C_49 
REMARK    3  A    between atoms: O_8  and  C_53 
REMARK    4  A    between atoms: O_12  and  C_56 
REMARK    5  A    between atoms: O_13  and  C_57 
REMARK    6  A    between atoms: O_14  and  C_59 
REMARK    7  A    between atoms: C_52  and  C_55 
REMARK    8  A    between atoms: C_58  and  C_60 
ROOT
HETATM    1  O   MOL     1     -51.449   0.175  16.850  1.00  0.00     0.000 OA
ENDROOT
BRANCH   1   2
HETATM    2  C   MOL     1     -50.497   0.126  17.157  1.00  0.00     0.007 C 
HETATM    3  C   MOL     1     -49.797  -0.533  16.652  1.00  0.00    -0.058 C 
HETATM    4  C   MOL     1     -48.651  -0.198  16.605  1.00  0.00    -0.007 C 
HETATM    5  C   MOL     1     -49.614  -1.265  15.995  1.00  0.00     0.027 C 
HETATM    6  C   MOL     1     -50.537  -0.892  16.084  1.00  0.00    -0.005 C 
HETATM    7  C   MOL     1     -48.419   0.077  17.727  1.00  0.00    -0.037 A 
HETATM    8  C   MOL     1     -48.093  -1.206  16.505  1.00  0.00     0.006 C 
HETATM    9  C   MOL     1     -47.300   0.428  17.616  1.00  0.00     0.013 A 
HETATM   10  C   MOL     1     -49.080   0.813  18.175  1.00  0.00     0.014 C 
HETATM   11  C   MOL     1     -48.284   0.054  19.099  1.00  0.00     0.081 C 
HETATM   12  C   MOL     1     -47.078   0.715  18.674  1.00  0.00    -0.024 A 
HETATM   13  C   MOL     1     -46.779  -0.586  17.569  1.00  0.00    -0.033 A 
HETATM   14  C   MOL     1     -45.797  -0.529  17.773  1.00  0.00    -0.030 A 
HETATM   15  C   MOL     1     -47.093  -1.211  16.797  1.00  0.00     0.011 C 
HETATM   16  C   MOL     1     -46.633  -1.956  17.635  1.00  0.00     0.044 C 
HETATM   17  C   MOL     1     -45.481   0.064  18.516  1.00  0.00    -0.018 A 
HETATM   18  C   MOL     1     -44.587  -0.277  19.163  1.00  0.00    -0.002 C 
HETATM   19  C   MOL     1     -46.117   0.703  18.948  1.00  0.00    -0.036 C 
HETATM   20  C   MOL     1     -45.156  -1.234  17.349  1.00  0.00     0.041 A 
HETATM   21  C   MOL     1     -43.824  -0.633  18.401  1.00  0.00    -0.059 C 
HETATM   22  C   MOL     1     -44.153   0.755  19.581  1.00  0.00     0.003 C 
HETATM   23  C   MOL     1     -44.154  -1.252  17.629  1.00  0.00     0.009 C 
HETATM   24  C   MOL     1     -42.769  -0.617  18.659  1.00  0.00     0.014 C 
HETATM   25  C   MOL     1     -43.380  -1.917  18.639  1.00  0.00     0.028 C 
HETATM   26  C   MOL     1     -42.416   0.064  19.426  1.00  0.00     0.253 A 
HETATM   27  C   MOL     1     -43.102   0.788  19.855  1.00  0.00     0.003 A 
HETATM   28  O   MOL     1     -41.451   0.749  20.379  1.00  0.00    -0.382 OA
HETATM   29  C   MOL     1     -43.094   2.168  19.844  1.00  0.00     0.044 C 
HETATM   30  C   MOL     1     -42.377   1.117  20.462  1.00  0.00     0.080 A 
HETATM   31  O   MOL     1     -42.567   1.849  21.117  1.00  0.00     0.000 OA
HETATM   32  C   MOL     1     -45.589  -0.599  16.412  1.00  0.00     0.025 C 
HETATM   33  C   MOL     1     -50.126   0.838  17.888  1.00  0.00    -0.012 C 
HETATM   34  O   MOL     1     -47.715   1.355  19.107  1.00  0.00     0.000 OA
ENDBRANCH   1   2
BRANCH   1  35
HETATM   35  C   MOL     1     -52.173   0.419  17.496  1.00  0.00    -0.027 A 
HETATM   36  O   MOL     1     -52.367  -0.180  18.275  1.00  0.00     0.000 OA
HETATM   37  C   MOL     1     -53.152   0.006  18.868  1.00  0.00     0.096 A 
HETATM   38  C   MOL     1     -53.683   0.849  18.736  1.00  0.00     0.133 A 
HETATM   39  C   MOL     1     -53.581   1.360  17.877  1.00  0.00     0.055 A 
HETATM   40  O   MOL     1     -54.749   1.588  17.181  1.00  0.00     0.000 OA
HETATM   41  C   MOL     1     -52.765   1.204  17.310  1.00  0.00     0.007 A 
HETATM   42  H   MOL     1     -54.609   2.307  18.102  1.00  0.00     0.000 HD
HETATM   43  O   MOL     1     -53.978   2.743  16.912  1.00  0.00     0.000 OA
HETATM   44  C   MOL     1     -53.254   2.499  16.265  1.00  0.00     0.057 A 
HETATM   45  C   MOL     1     -54.600   3.499  16.699  1.00  0.00     0.071 C 
HETATM   46  O   MOL     1     -52.632   1.744  16.479  1.00  0.00     0.000 OA
HETATM   47  C   MOL     1     -53.030   3.127  15.513  1.00  0.00     0.154 A 
HETATM   48  C   MOL     1     -53.683   3.853  15.274  1.00  0.00     0.211 A 
HETATM   49  C   MOL     1     -54.377   4.127  15.947  1.00  0.00     0.146 C 
BRANCH  37  50
HETATM   50  C   MOL     1     -53.892  -1.120  19.164  1.00  0.00     0.297 C 
HETATM   51  O   MOL     1     -53.473  -0.663  20.434  1.00  0.00    -0.188 OA
HETATM   52  O   MOL     1     -52.556  -1.569  19.277  1.00  0.00    -0.188 OA
ENDBRANCH  37  50
BRANCH  38  53
HETATM   53  O   MOL     1     -53.861   1.620  19.866  1.00  0.00    -0.395 OA
HETATM   54  H   MOL     1     -52.812   1.087  19.828  1.00  0.00     0.210 HD
ENDBRANCH  38  53
BRANCH  47  55
HETATM   55  O   MOL     1     -51.698   3.469  15.404  1.00  0.00    -0.393 OA
HETATM   56  H   MOL     1     -52.320   4.229  16.051  1.00  0.00     0.210 HD
ENDBRANCH  47  55
BRANCH  48  57
HETATM   57  O   MOL     1     -54.097   3.867  13.958  1.00  0.00    -0.392 OA
HETATM   58  H   MOL     1     -54.958   4.121  14.719  1.00  0.00     0.210 HD
ENDBRANCH  48  57
BRANCH  49  59
HETATM   59  O   MOL     1     -54.391   5.467  16.272  1.00  0.00    -0.399 OA
HETATM   60  H   MOL     1     -54.321   4.763  17.211  1.00  0.00     0.209 HD
ENDBRANCH  49  59
BRANCH  45  61
HETATM   61  C   MOL     1     -55.933   3.157  16.810  1.00  0.00     0.292 C 
HETATM   62  O   MOL     1     -55.976   4.506  16.386  1.00  0.00    -0.188 OA
HETATM   63  O   MOL     1     -55.690   3.905  17.985  1.00  0.00    -0.188 OA
ENDBRANCH  45  61
ENDBRANCH   1  35
TORSDOF 8
ENDMDL
