MODEL 1
REMARK VINA RESULT:      -6.4      0.000      0.000
REMARK  4 active torsions:
REMARK  status: ('A' for Active; 'I' for Inactive)
REMARK    1  A    between atoms: O_2  and  C_9 
REMARK    2  A    between atoms: O_3  and  C_11 
REMARK    3  A    between atoms: O_4  and  C_14 
REMARK    4  A    between atoms: C_8  and  C_13 
ROOT
HETATM    1  O   UNK     0     -44.228   0.173  17.740  0.00  0.00    -0.306 OA
HETATM    2  O   UNK     0     -47.762   1.679  19.097  0.00  0.00    -0.287 OA
HETATM    3  C   UNK     0     -46.656   0.166  17.657  0.00  0.00     0.084 A 
HETATM    4  C   UNK     0     -45.413  -0.305  17.238  0.00  0.00     0.129 A 
HETATM    5  C   UNK     0     -44.273   1.173  18.699  0.00  0.00     0.090 A 
HETATM    6  C   UNK     0     -45.336  -1.307  16.270  0.00  0.00     0.136 A 
HETATM    7  C   UNK     0     -46.707   1.220  18.681  0.00  0.00     0.190 A 
HETATM    8  C   UNK     0     -47.830  -0.358  17.112  0.00  0.00     0.085 A 
HETATM    9  C   UNK     0     -45.405   1.702  19.186  0.00  0.00     0.094 A 
HETATM   10  C   UNK     0     -46.507  -1.833  15.723  0.00  0.00     0.104 A 
HETATM   11  C   UNK     0     -47.751  -1.359  16.143  0.00  0.00     0.077 A 
ENDROOT
BRANCH   5  12
HETATM   12  C   UNK     0     -42.943   1.609  19.173  0.00  0.00    -0.002 A 
HETATM   13  C   UNK     0     -42.369   2.780  18.673  0.00  0.00     0.014 A 
HETATM   14  C   UNK     0     -41.115   3.193  19.121  0.00  0.00     0.001 A 
HETATM   15  C   UNK     0     -40.430   2.435  20.071  0.00  0.00     0.000 A 
HETATM   16  C   UNK     0     -41.000   1.266  20.574  0.00  0.00     0.001 A 
HETATM   17  C   UNK     0     -42.255   0.853  20.125  0.00  0.00     0.014 A 
ENDBRANCH   5  12
BRANCH   6  18
HETATM   18  O   UNK     0     -44.124  -1.773  15.856  0.00  0.00    -0.351 OA
HETATM   19  C   UNK     0     -43.785  -1.566  14.486  0.00  0.00     0.210 C 
ENDBRANCH   6  18
BRANCH   8  20
HETATM   20  O   UNK     0     -49.067   0.068  17.488  0.00  0.00    -0.360 OA
HETATM   21  H   UNK     0     -49.394  -0.454  18.236  0.00  0.00     0.217 HD
ENDBRANCH   8  20
BRANCH  10  22
HETATM   22  O   UNK     0     -46.449  -2.810  14.776  0.00  0.00    -0.358 OA
HETATM   23  H   UNK     0     -47.352  -3.019  14.480  0.00  0.00     0.217 HD
ENDBRANCH  10  22
TORSDOF 4
ENDMDL
MODEL 2
REMARK VINA RESULT:      -6.4      2.832      4.480
REMARK  4 active torsions:
REMARK  status: ('A' for Active; 'I' for Inactive)
REMARK    1  A    between atoms: O_2  and  C_9 
REMARK    2  A    between atoms: O_3  and  C_11 
REMARK    3  A    between atoms: O_4  and  C_14 
REMARK    4  A    between atoms: C_8  and  C_13 
ROOT
HETATM    1  O   UNK     0     -46.932  -2.438  17.166  0.00  0.00    -0.306 OA
HETATM    2  O   UNK     0     -48.001  -0.268  13.887  0.00  0.00    -0.287 OA
HETATM    3  C   UNK     0     -48.450  -2.110  15.298  0.00  0.00     0.084 A 
HETATM    4  C   UNK     0     -48.030  -2.807  16.429  0.00  0.00     0.129 A 
HETATM    5  C   UNK     0     -46.206  -1.329  16.758  0.00  0.00     0.090 A 
HETATM    6  C   UNK     0     -48.737  -3.930  16.860  0.00  0.00     0.136 A 
HETATM    7  C   UNK     0     -47.688  -0.928  14.869  0.00  0.00     0.190 A 
HETATM    8  C   UNK     0     -49.576  -2.530  14.587  0.00  0.00     0.085 A 
HETATM    9  C   UNK     0     -46.514  -0.575  15.692  0.00  0.00     0.094 A 
HETATM   10  C   UNK     0     -49.863  -4.354  16.153  0.00  0.00     0.104 A 
HETATM   11  C   UNK     0     -50.282  -3.655  15.019  0.00  0.00     0.077 A 
ENDROOT
BRANCH   5  12
HETATM   12  C   UNK     0     -45.050  -1.018  17.623  0.00  0.00    -0.002 A 
HETATM   13  C   UNK     0     -44.199  -2.040  18.052  0.00  0.00     0.014 A 
HETATM   14  C   UNK     0     -43.107  -1.748  18.868  0.00  0.00     0.001 A 
HETATM   15  C   UNK     0     -42.861  -0.431  19.257  0.00  0.00     0.000 A 
HETATM   16  C   UNK     0     -43.707   0.592  18.832  0.00  0.00     0.001 A 
HETATM   17  C   UNK     0     -44.800   0.299  18.015  0.00  0.00     0.014 A 
ENDBRANCH   5  12
BRANCH   6  18
HETATM   18  O   UNK     0     -48.333  -4.616  17.966  0.00  0.00    -0.351 OA
HETATM   19  C   UNK     0     -47.972  -5.984  17.783  0.00  0.00     0.210 C 
ENDBRANCH   6  18
BRANCH   8  20
HETATM   20  O   UNK     0     -50.027  -1.884  13.477  0.00  0.00    -0.360 OA
HETATM   21  H   UNK     0     -49.812  -2.389  12.679  0.00  0.00     0.217 HD
ENDBRANCH   8  20
BRANCH  10  22
HETATM   22  O   UNK     0     -50.563  -5.449  16.559  0.00  0.00    -0.358 OA
HETATM   23  H   UNK     0     -51.265  -5.635  15.911  0.00  0.00     0.217 HD
ENDBRANCH  10  22
TORSDOF 4
ENDMDL
MODEL 3
REMARK VINA RESULT:      -6.2      1.358      3.619
REMARK  4 active torsions:
REMARK  status: ('A' for Active; 'I' for Inactive)
REMARK    1  A    between atoms: O_2  and  C_9 
REMARK    2  A    between atoms: O_3  and  C_11 
REMARK    3  A    between atoms: O_4  and  C_14 
REMARK    4  A    between atoms: C_8  and  C_13 
ROOT
HETATM    1  O   UNK     0     -46.068   0.096  17.869  0.00  0.00    -0.306 OA
HETATM    2  O   UNK     0     -45.000  -2.189  14.670  0.00  0.00    -0.287 OA
HETATM    3  C   UNK     0     -46.739  -1.200  15.927  0.00  0.00     0.084 A 
HETATM    4  C   UNK     0     -47.035  -0.411  17.038  0.00  0.00     0.129 A 
HETATM    5  C   UNK     0     -44.741  -0.198  17.596  0.00  0.00     0.090 A 
HETATM    6  C   UNK     0     -48.361  -0.103  17.342  0.00  0.00     0.136 A 
HETATM    7  C   UNK     0     -45.332  -1.505  15.629  0.00  0.00     0.190 A 
HETATM    8  C   UNK     0     -47.764  -1.688  15.114  0.00  0.00     0.085 A 
HETATM    9  C   UNK     0     -44.331  -0.939  16.555  0.00  0.00     0.094 A 
HETATM   10  C   UNK     0     -49.389  -0.589  16.532  0.00  0.00     0.104 A 
HETATM   11  C   UNK     0     -49.091  -1.379  15.421  0.00  0.00     0.077 A 
ENDROOT
BRANCH   5  12
HETATM   12  C   UNK     0     -43.785   0.401  18.549  0.00  0.00    -0.002 A 
HETATM   13  C   UNK     0     -43.507   1.769  18.499  0.00  0.00     0.014 A 
HETATM   14  C   UNK     0     -42.605   2.335  19.399  0.00  0.00     0.001 A 
HETATM   15  C   UNK     0     -41.977   1.534  20.353  0.00  0.00     0.000 A 
HETATM   16  C   UNK     0     -42.251   0.168  20.407  0.00  0.00     0.001 A 
HETATM   17  C   UNK     0     -43.154  -0.398  19.506  0.00  0.00     0.014 A 
ENDBRANCH   5  12
BRANCH   6  18
HETATM   18  O   UNK     0     -48.658   0.669  18.426  0.00  0.00    -0.351 OA
HETATM   19  C   UNK     0     -48.902  -0.010  19.656  0.00  0.00     0.210 C 
ENDBRANCH   6  18
BRANCH   8  20
HETATM   20  O   UNK     0     -47.527  -2.461  14.019  0.00  0.00    -0.360 OA
HETATM   21  H   UNK     0     -47.722  -3.391  14.210  0.00  0.00     0.217 HD
ENDBRANCH   8  20
BRANCH  10  22
HETATM   22  O   UNK     0     -50.689  -0.299  16.816  0.00  0.00    -0.358 OA
HETATM   23  H   UNK     0     -51.257  -1.001  16.454  0.00  0.00     0.217 HD
ENDBRANCH  10  22
TORSDOF 4
ENDMDL
MODEL 4
REMARK VINA RESULT:      -6.2      1.797      3.624
REMARK  4 active torsions:
REMARK  status: ('A' for Active; 'I' for Inactive)
REMARK    1  A    between atoms: O_2  and  C_9 
REMARK    2  A    between atoms: O_3  and  C_11 
REMARK    3  A    between atoms: O_4  and  C_14 
REMARK    4  A    between atoms: C_8  and  C_13 
ROOT
HETATM    1  O   UNK     0     -45.072   1.473  19.031  0.00  0.00    -0.306 OA
HETATM    2  O   UNK     0     -45.100  -2.462  17.977  0.00  0.00    -0.287 OA
HETATM    3  C   UNK     0     -46.343  -0.496  18.394  0.00  0.00     0.084 A 
HETATM    4  C   UNK     0     -46.262   0.846  18.759  0.00  0.00     0.129 A 
HETATM    5  C   UNK     0     -43.902   0.734  18.947  0.00  0.00     0.090 A 
HETATM    6  C   UNK     0     -47.423   1.614  18.858  0.00  0.00     0.136 A 
HETATM    7  C   UNK     0     -45.103  -1.280  18.294  0.00  0.00     0.190 A 
HETATM    8  C   UNK     0     -47.582  -1.082  18.127  0.00  0.00     0.085 A 
HETATM    9  C   UNK     0     -43.850  -0.561  18.600  0.00  0.00     0.094 A 
HETATM   10  C   UNK     0     -48.664   1.032  18.593  0.00  0.00     0.104 A 
HETATM   11  C   UNK     0     -48.743  -0.313  18.228  0.00  0.00     0.077 A 
ENDROOT
BRANCH   5  12
HETATM   12  C   UNK     0     -42.681   1.506  19.254  0.00  0.00    -0.002 A 
HETATM   13  C   UNK     0     -42.441   2.724  18.614  0.00  0.00     0.014 A 
HETATM   14  C   UNK     0     -41.289   3.454  18.904  0.00  0.00     0.001 A 
HETATM   15  C   UNK     0     -40.373   2.968  19.837  0.00  0.00     0.000 A 
HETATM   16  C   UNK     0     -40.608   1.753  20.479  0.00  0.00     0.001 A 
HETATM   17  C   UNK     0     -41.761   1.023  20.188  0.00  0.00     0.014 A 
ENDBRANCH   5  12
BRANCH   6  18
HETATM   18  O   UNK     0     -47.352   2.928  19.214  0.00  0.00    -0.351 OA
HETATM   19  C   UNK     0     -47.519   3.233  20.598  0.00  0.00     0.210 C 
ENDBRANCH   6  18
BRANCH   8  20
HETATM   20  O   UNK     0     -47.714  -2.388  17.766  0.00  0.00    -0.360 OA
HETATM   21  H   UNK     0     -47.064  -2.937  18.231  0.00  0.00     0.217 HD
ENDBRANCH   8  20
BRANCH  10  22
HETATM   22  O   UNK     0     -49.806   1.767  18.687  0.00  0.00    -0.358 OA
HETATM   23  H   UNK     0     -50.274   1.736  17.834  0.00  0.00     0.217 HD
ENDBRANCH  10  22
TORSDOF 4
ENDMDL
MODEL 5
REMARK VINA RESULT:      -5.8      2.429      4.808
REMARK  4 active torsions:
REMARK  status: ('A' for Active; 'I' for Inactive)
REMARK    1  A    between atoms: O_2  and  C_9 
REMARK    2  A    between atoms: O_3  and  C_11 
REMARK    3  A    between atoms: O_4  and  C_14 
REMARK    4  A    between atoms: C_8  and  C_13 
ROOT
HETATM    1  O   UNK     0     -46.458   0.735  18.360  0.00  0.00    -0.306 OA
HETATM    2  O   UNK     0     -43.478  -0.556  20.820  0.00  0.00    -0.287 OA
HETATM    3  C   UNK     0     -44.483  -0.641  18.683  0.00  0.00     0.084 A 
HETATM    4  C   UNK     0     -45.526  -0.159  17.895  0.00  0.00     0.129 A 
HETATM    5  C   UNK     0     -46.359   1.168  19.674  0.00  0.00     0.090 A 
HETATM    6  C   UNK     0     -45.655  -0.582  16.572  0.00  0.00     0.136 A 
HETATM    7  C   UNK     0     -44.369  -0.176  20.073  0.00  0.00     0.190 A 
HETATM    8  C   UNK     0     -43.562  -1.550  18.156  0.00  0.00     0.085 A 
HETATM    9  C   UNK     0     -45.398   0.782  20.526  0.00  0.00     0.094 A 
HETATM   10  C   UNK     0     -44.737  -1.490  16.041  0.00  0.00     0.104 A 
HETATM   11  C   UNK     0     -43.693  -1.972  16.832  0.00  0.00     0.077 A 
ENDROOT
BRANCH   5  12
HETATM   12  C   UNK     0     -47.408   2.131  20.068  0.00  0.00    -0.002 A 
HETATM   13  C   UNK     0     -48.627   2.160  19.387  0.00  0.00     0.014 A 
HETATM   14  C   UNK     0     -49.617   3.067  19.759  0.00  0.00     0.001 A 
HETATM   15  C   UNK     0     -49.392   3.950  20.815  0.00  0.00     0.000 A 
HETATM   16  C   UNK     0     -48.177   3.925  21.499  0.00  0.00     0.001 A 
HETATM   17  C   UNK     0     -47.186   3.016  21.126  0.00  0.00     0.014 A 
ENDBRANCH   5  12
BRANCH   6  18
HETATM   18  O   UNK     0     -46.673  -0.114  15.795  0.00  0.00    -0.351 OA
HETATM   19  C   UNK     0     -47.884  -0.868  15.791  0.00  0.00     0.210 C 
ENDBRANCH   6  18
BRANCH   8  20
HETATM   20  O   UNK     0     -42.525  -2.049  18.884  0.00  0.00    -0.360 OA
HETATM   21  H   UNK     0     -41.678  -1.799  18.486  0.00  0.00     0.217 HD
ENDBRANCH   8  20
BRANCH  10  22
HETATM   22  O   UNK     0     -44.850  -1.913  14.752  0.00  0.00    -0.358 OA
HETATM   23  H   UNK     0     -44.345  -2.738  14.644  0.00  0.00     0.217 HD
ENDBRANCH  10  22
TORSDOF 4
ENDMDL
MODEL 6
REMARK VINA RESULT:      -5.8      2.162      4.456
REMARK  4 active torsions:
REMARK  status: ('A' for Active; 'I' for Inactive)
REMARK    1  A    between atoms: O_2  and  C_9 
REMARK    2  A    between atoms: O_3  and  C_11 
REMARK    3  A    between atoms: O_4  and  C_14 
REMARK    4  A    between atoms: C_8  and  C_13 
ROOT
HETATM    1  O   UNK     0     -46.820   0.843  18.272  0.00  0.00    -0.306 OA
HETATM    2  O   UNK     0     -43.021  -0.517  18.835  0.00  0.00    -0.287 OA
HETATM    3  C   UNK     0     -45.001  -0.595  17.548  0.00  0.00     0.084 A 
HETATM    4  C   UNK     0     -46.291  -0.087  17.413  0.00  0.00     0.129 A 
HETATM    5  C   UNK     0     -46.035   1.289  19.325  0.00  0.00     0.090 A 
HETATM    6  C   UNK     0     -47.106  -0.521  16.367  0.00  0.00     0.136 A 
HETATM    7  C   UNK     0     -44.163  -0.117  18.658  0.00  0.00     0.190 A 
HETATM    8  C   UNK     0     -44.515  -1.540  16.642  0.00  0.00     0.085 A 
HETATM    9  C   UNK     0     -44.778   0.881  19.556  0.00  0.00     0.094 A 
HETATM   10  C   UNK     0     -46.625  -1.466  15.459  0.00  0.00     0.104 A 
HETATM   11  C   UNK     0     -45.332  -1.974  15.597  0.00  0.00     0.077 A 
ENDROOT
BRANCH   5  12
HETATM   12  C   UNK     0     -46.698   2.292  20.184  0.00  0.00    -0.002 A 
HETATM   13  C   UNK     0     -46.222   2.536  21.474  0.00  0.00     0.014 A 
HETATM   14  C   UNK     0     -46.846   3.482  22.285  0.00  0.00     0.001 A 
HETATM   15  C   UNK     0     -47.951   4.188  21.809  0.00  0.00     0.000 A 
HETATM   16  C   UNK     0     -48.430   3.948  20.521  0.00  0.00     0.001 A 
HETATM   17  C   UNK     0     -47.804   3.001  19.710  0.00  0.00     0.014 A 
ENDBRANCH   5  12
BRANCH   6  18
HETATM   18  O   UNK     0     -48.370  -0.029  16.227  0.00  0.00    -0.351 OA
HETATM   19  C   UNK     0     -49.420  -0.752  16.866  0.00  0.00     0.210 C 
ENDBRANCH   6  18
BRANCH   8  20
HETATM   20  O   UNK     0     -43.262  -2.065  16.731  0.00  0.00    -0.360 OA
HETATM   21  H   UNK     0     -42.683  -1.480  17.241  0.00  0.00     0.217 HD
ENDBRANCH   8  20
BRANCH  10  22
HETATM   22  O   UNK     0     -47.408  -1.902  14.433  0.00  0.00    -0.358 OA
HETATM   23  H   UNK     0     -48.299  -1.523  14.531  0.00  0.00     0.217 HD
ENDBRANCH  10  22
TORSDOF 4
ENDMDL
MODEL 7
REMARK VINA RESULT:      -5.7      1.585      2.046
REMARK  4 active torsions:
REMARK  status: ('A' for Active; 'I' for Inactive)
REMARK    1  A    between atoms: O_2  and  C_9 
REMARK    2  A    between atoms: O_3  and  C_11 
REMARK    3  A    between atoms: O_4  and  C_14 
REMARK    4  A    between atoms: C_8  and  C_13 
ROOT
HETATM    1  O   UNK     0     -46.022   0.388  17.619  0.00  0.00    -0.306 OA
HETATM    2  O   UNK     0     -49.455   0.001  19.777  0.00  0.00    -0.287 OA
HETATM    3  C   UNK     0     -48.346  -0.311  17.714  0.00  0.00     0.084 A 
HETATM    4  C   UNK     0     -47.141  -0.151  17.034  0.00  0.00     0.129 A 
HETATM    5  C   UNK     0     -46.101   0.798  18.941  0.00  0.00     0.090 A 
HETATM    6  C   UNK     0     -47.033  -0.549  15.701  0.00  0.00     0.136 A 
HETATM    7  C   UNK     0     -48.430   0.114  19.119  0.00  0.00     0.190 A 
HETATM    8  C   UNK     0     -49.453  -0.867  17.069  0.00  0.00     0.085 A 
HETATM    9  C   UNK     0     -47.201   0.690  19.701  0.00  0.00     0.094 A 
HETATM   10  C   UNK     0     -48.136  -1.105  15.052  0.00  0.00     0.104 A 
HETATM   11  C   UNK     0     -49.344  -1.264  15.735  0.00  0.00     0.077 A 
ENDROOT
BRANCH   5  12
HETATM   12  C   UNK     0     -44.841   1.358  19.471  0.00  0.00    -0.002 A 
HETATM   13  C   UNK     0     -43.735   1.517  18.633  0.00  0.00     0.014 A 
HETATM   14  C   UNK     0     -42.546   2.045  19.132  0.00  0.00     0.001 A 
HETATM   15  C   UNK     0     -42.458   2.417  20.474  0.00  0.00     0.000 A 
HETATM   16  C   UNK     0     -43.559   2.260  21.315  0.00  0.00     0.001 A 
HETATM   17  C   UNK     0     -44.749   1.731  20.814  0.00  0.00     0.014 A 
ENDBRANCH   5  12
BRANCH   6  18
HETATM   18  O   UNK     0     -45.856  -0.396  15.029  0.00  0.00    -0.351 OA
HETATM   19  C   UNK     0     -44.846  -1.375  15.262  0.00  0.00     0.210 C 
ENDBRANCH   6  18
BRANCH   8  20
HETATM   20  O   UNK     0     -50.652  -1.045  17.689  0.00  0.00    -0.360 OA
HETATM   21  H   UNK     0     -50.996  -0.200  18.014  0.00  0.00     0.217 HD
ENDBRANCH   8  20
BRANCH  10  22
HETATM   22  O   UNK     0     -48.048  -1.497  13.751  0.00  0.00    -0.358 OA
HETATM   23  H   UNK     0     -47.235  -1.130  13.363  0.00  0.00     0.217 HD
ENDBRANCH  10  22
TORSDOF 4
ENDMDL
MODEL 8
REMARK VINA RESULT:      -5.5     15.201     18.780
REMARK  4 active torsions:
REMARK  status: ('A' for Active; 'I' for Inactive)
REMARK    1  A    between atoms: O_2  and  C_9 
REMARK    2  A    between atoms: O_3  and  C_11 
REMARK    3  A    between atoms: O_4  and  C_14 
REMARK    4  A    between atoms: C_8  and  C_13 
ROOT
HETATM    1  O   UNK     0     -57.557  -1.451   5.503  0.00  0.00    -0.306 OA
HETATM    2  O   UNK     0     -60.746  -3.980   5.334  0.00  0.00    -0.287 OA
HETATM    3  C   UNK     0     -58.962  -3.097   6.606  0.00  0.00     0.084 A 
HETATM    4  C   UNK     0     -57.885  -2.212   6.597  0.00  0.00     0.129 A 
HETATM    5  C   UNK     0     -58.326  -1.577   4.356  0.00  0.00     0.090 A 
HETATM    6  C   UNK     0     -57.090  -2.068   7.734  0.00  0.00     0.136 A 
HETATM    7  C   UNK     0     -59.785  -3.225   5.395  0.00  0.00     0.190 A 
HETATM    8  C   UNK     0     -59.251  -3.845   7.749  0.00  0.00     0.085 A 
HETATM    9  C   UNK     0     -59.389  -2.388   4.245  0.00  0.00     0.094 A 
HETATM   10  C   UNK     0     -57.374  -2.815   8.878  0.00  0.00     0.104 A 
HETATM   11  C   UNK     0     -58.453  -3.701   8.886  0.00  0.00     0.077 A 
ENDROOT
BRANCH   5  12
HETATM   12  C   UNK     0     -57.889  -0.710   3.243  0.00  0.00    -0.002 A 
HETATM   13  C   UNK     0     -57.420   0.581   3.500  0.00  0.00     0.014 A 
HETATM   14  C   UNK     0     -57.007   1.399   2.449  0.00  0.00     0.001 A 
HETATM   15  C   UNK     0     -57.060   0.929   1.137  0.00  0.00     0.000 A 
HETATM   16  C   UNK     0     -57.527  -0.359   0.876  0.00  0.00     0.001 A 
HETATM   17  C   UNK     0     -57.941  -1.178   1.927  0.00  0.00     0.014 A 
ENDBRANCH   5  12
BRANCH   6  18
HETATM   18  O   UNK     0     -56.035  -1.204   7.733  0.00  0.00    -0.351 OA
HETATM   19  C   UNK     0     -56.287   0.125   8.187  0.00  0.00     0.210 C 
ENDBRANCH   6  18
BRANCH   8  20
HETATM   20  O   UNK     0     -60.291  -4.722   7.809  0.00  0.00    -0.360 OA
HETATM   21  H   UNK     0     -60.023  -5.591   7.475  0.00  0.00     0.217 HD
ENDBRANCH   8  20
BRANCH  10  22
HETATM   22  O   UNK     0     -56.607  -2.687   9.996  0.00  0.00    -0.358 OA
HETATM   23  H   UNK     0     -56.553  -1.747  10.239  0.00  0.00     0.217 HD
ENDBRANCH  10  22
TORSDOF 4
ENDMDL
MODEL 9
REMARK VINA RESULT:      -5.5      4.015      6.152
REMARK  4 active torsions:
REMARK  status: ('A' for Active; 'I' for Inactive)
REMARK    1  A    between atoms: O_2  and  C_9 
REMARK    2  A    between atoms: O_3  and  C_11 
REMARK    3  A    between atoms: O_4  and  C_14 
REMARK    4  A    between atoms: C_8  and  C_13 
ROOT
HETATM    1  O   UNK     0     -48.701  -3.157  16.043  0.00  0.00    -0.306 OA
HETATM    2  O   UNK     0     -50.967  -0.336  14.171  0.00  0.00    -0.287 OA
HETATM    3  C   UNK     0     -50.847  -2.499  15.114  0.00  0.00     0.084 A 
HETATM    4  C   UNK     0     -50.016  -3.418  15.753  0.00  0.00     0.129 A 
HETATM    5  C   UNK     0     -48.176  -1.927  15.676  0.00  0.00     0.090 A 
HETATM    6  C   UNK     0     -50.515  -4.665  16.130  0.00  0.00     0.136 A 
HETATM    7  C   UNK     0     -50.296  -1.191  14.732  0.00  0.00     0.190 A 
HETATM    8  C   UNK     0     -52.179  -2.819  14.845  0.00  0.00     0.085 A 
HETATM    9  C   UNK     0     -48.875  -0.960  15.063  0.00  0.00     0.094 A 
HETATM   10  C   UNK     0     -51.846  -4.990  15.862  0.00  0.00     0.104 A 
HETATM   11  C   UNK     0     -52.676  -4.068  15.222  0.00  0.00     0.077 A 
ENDROOT
BRANCH   5  12
HETATM   12  C   UNK     0     -46.755  -1.749  16.039  0.00  0.00    -0.002 A 
HETATM   13  C   UNK     0     -45.921  -0.959  15.245  0.00  0.00     0.014 A 
HETATM   14  C   UNK     0     -44.580  -0.789  15.588  0.00  0.00     0.001 A 
HETATM   15  C   UNK     0     -44.068  -1.410  16.728  0.00  0.00     0.000 A 
HETATM   16  C   UNK     0     -44.898  -2.200  17.524  0.00  0.00     0.001 A 
HETATM   17  C   UNK     0     -46.239  -2.369  17.180  0.00  0.00     0.014 A 
ENDBRANCH   5  12
BRANCH   6  18
HETATM   18  O   UNK     0     -49.709  -5.570  16.756  0.00  0.00    -0.351 OA
HETATM   19  C   UNK     0     -49.678  -5.530  18.181  0.00  0.00     0.210 C 
ENDBRANCH   6  18
BRANCH   8  20
HETATM   20  O   UNK     0     -53.030  -1.956  14.224  0.00  0.00    -0.360 OA
HETATM   21  H   UNK     0     -52.574  -1.131  14.000  0.00  0.00     0.217 HD
ENDBRANCH   8  20
BRANCH  10  22
HETATM   22  O   UNK     0     -52.348  -6.203  16.222  0.00  0.00    -0.358 OA
HETATM   23  H   UNK     0     -52.961  -6.511  15.531  0.00  0.00     0.217 HD
ENDBRANCH  10  22
TORSDOF 4
ENDMDL
MODEL 10
REMARK VINA RESULT:      -5.4      2.664      4.609
REMARK  4 active torsions:
REMARK  status: ('A' for Active; 'I' for Inactive)
REMARK    1  A    between atoms: O_2  and  C_9 
REMARK    2  A    between atoms: O_3  and  C_11 
REMARK    3  A    between atoms: O_4  and  C_14 
REMARK    4  A    between atoms: C_8  and  C_13 
ROOT
HETATM    1  O   UNK     0     -47.886   0.287  17.643  0.00  0.00    -0.306 OA
HETATM    2  O   UNK     0     -44.393  -1.346  16.329  0.00  0.00    -0.287 OA
HETATM    3  C   UNK     0     -46.740  -1.196  16.099  0.00  0.00     0.084 A 
HETATM    4  C   UNK     0     -47.897  -0.601  16.597  0.00  0.00     0.129 A 
HETATM    5  C   UNK     0     -46.670   0.596  18.234  0.00  0.00     0.090 A 
HETATM    6  C   UNK     0     -49.135  -0.897  16.026  0.00  0.00     0.136 A 
HETATM    7  C   UNK     0     -45.448  -0.863  16.717  0.00  0.00     0.190 A 
HETATM    8  C   UNK     0     -46.810  -2.093  15.030  0.00  0.00     0.085 A 
HETATM    9  C   UNK     0     -45.490   0.094  17.840  0.00  0.00     0.094 A 
HETATM   10  C   UNK     0     -49.211  -1.792  14.959  0.00  0.00     0.104 A 
HETATM   11  C   UNK     0     -48.050  -2.389  14.461  0.00  0.00     0.077 A 
ENDROOT
BRANCH   5  12
HETATM   12  C   UNK     0     -46.773   1.564  19.345  0.00  0.00    -0.002 A 
HETATM   13  C   UNK     0     -45.854   1.525  20.397  0.00  0.00     0.014 A 
HETATM   14  C   UNK     0     -45.949   2.438  21.446  0.00  0.00     0.001 A 
HETATM   15  C   UNK     0     -46.965   3.395  21.447  0.00  0.00     0.000 A 
HETATM   16  C   UNK     0     -47.884   3.438  20.399  0.00  0.00     0.001 A 
HETATM   17  C   UNK     0     -47.788   2.524  19.349  0.00  0.00     0.014 A 
ENDBRANCH   5  12
BRANCH   6  18
HETATM   18  O   UNK     0     -50.272  -0.318  16.507  0.00  0.00    -0.351 OA
HETATM   19  C   UNK     0     -50.974  -1.022  17.530  0.00  0.00     0.210 C 
ENDBRANCH   6  18
BRANCH   8  20
HETATM   20  O   UNK     0     -45.709  -2.700  14.508  0.00  0.00    -0.360 OA
HETATM   21  H   UNK     0     -45.768  -2.738  13.541  0.00  0.00     0.217 HD
ENDBRANCH   8  20
BRANCH  10  22
HETATM   22  O   UNK     0     -50.412  -2.093  14.392  0.00  0.00    -0.358 OA
HETATM   23  H   UNK     0     -50.660  -1.382  13.776  0.00  0.00     0.217 HD
ENDBRANCH  10  22
TORSDOF 4
ENDMDL
