MODEL 1
REMARK VINA RESULT:     -11.0      0.000      0.000
REMARK  8 active torsions:
REMARK  status: ('A' for Active; 'I' for Inactive)
REMARK    1  A    between atoms: O_1  and  C_33 
REMARK    2  A    between atoms: O_1  and  C_49 
REMARK    3  A    between atoms: O_8  and  C_53 
REMARK    4  A    between atoms: O_12  and  C_56 
REMARK    5  A    between atoms: O_13  and  C_57 
REMARK    6  A    between atoms: O_14  and  C_59 
REMARK    7  A    between atoms: C_52  and  C_55 
REMARK    8  A    between atoms: C_58  and  C_60 
ROOT
HETATM    1  O   MOL     1     -44.710  -0.775  18.985  1.00  0.00     0.000 OA
ENDROOT
BRANCH   1   2
HETATM    2  C   MOL     1     -44.079  -0.040  19.238  1.00  0.00     0.007 C 
HETATM    3  C   MOL     1     -43.356  -0.196  20.034  1.00  0.00    -0.058 C 
HETATM    4  C   MOL     1     -42.310   0.376  19.955  1.00  0.00    -0.007 C 
HETATM    5  C   MOL     1     -43.002  -0.749  20.788  1.00  0.00     0.027 C 
HETATM    6  C   MOL     1     -43.751  -1.094  20.224  1.00  0.00    -0.005 C 
HETATM    7  C   MOL     1     -42.640   1.485  19.736  1.00  0.00    -0.037 A 
HETATM    8  C   MOL     1     -41.978   0.457  21.060  1.00  0.00     0.006 C 
HETATM    9  C   MOL     1     -41.580   1.990  19.637  1.00  0.00     0.013 A 
HETATM   10  C   MOL     1     -43.286   1.620  18.875  1.00  0.00     0.014 C 
HETATM   11  C   MOL     1     -43.235   2.728  19.788  1.00  0.00     0.081 C 
HETATM   12  C   MOL     1     -41.884   3.040  19.405  1.00  0.00    -0.024 A 
HETATM   13  C   MOL     1     -41.308   2.098  20.739  1.00  0.00    -0.033 A 
HETATM   14  C   MOL     1     -40.579   2.772  20.897  1.00  0.00    -0.030 A 
HETATM   15  C   MOL     1     -41.291   1.208  21.282  1.00  0.00     0.011 C 
HETATM   16  C   MOL     1     -41.474   2.075  22.109  1.00  0.00     0.044 C 
HETATM   17  C   MOL     1     -40.586   3.633  20.386  1.00  0.00    -0.018 A 
HETATM   18  C   MOL     1     -40.232   4.598  20.912  1.00  0.00    -0.002 C 
HETATM   19  C   MOL     1     -41.221   3.757  19.624  1.00  0.00    -0.036 C 
HETATM   20  C   MOL     1     -39.956   2.650  21.724  1.00  0.00     0.041 A 
HETATM   21  C   MOL     1     -39.269   4.288  21.425  1.00  0.00    -0.059 C 
HETATM   22  C   MOL     1     -39.892   5.290  20.000  1.00  0.00     0.003 C 
HETATM   23  C   MOL     1     -39.264   3.391  21.959  1.00  0.00     0.009 C 
HETATM   24  C   MOL     1     -38.514   5.039  21.639  1.00  0.00     0.014 C 
HETATM   25  C   MOL     1     -39.258   4.572  22.775  1.00  0.00     0.028 C 
HETATM   26  C   MOL     1     -38.485   5.950  21.050  1.00  0.00     0.253 A 
HETATM   27  C   MOL     1     -39.146   6.055  20.194  1.00  0.00     0.003 A 
HETATM   28  O   MOL     1     -38.038   7.328  20.590  1.00  0.00    -0.382 OA
HETATM   29  C   MOL     1     -38.876   6.203  18.849  1.00  0.00     0.044 C 
HETATM   30  C   MOL     1     -38.788   6.976  20.030  1.00  0.00     0.080 A 
HETATM   31  O   MOL     1     -39.147   7.524  19.275  1.00  0.00     0.000 OA
HETATM   32  C   MOL     1     -39.720   1.699  21.010  1.00  0.00     0.025 C 
HETATM   33  C   MOL     1     -44.011   0.852  18.624  1.00  0.00    -0.012 C 
HETATM   34  O   MOL     1     -42.520   3.164  18.642  1.00  0.00     0.000 OA
ENDBRANCH   1   2
BRANCH   1  35
HETATM   35  C   MOL     1     -45.697  -0.611  18.980  1.00  0.00    -0.027 A 
HETATM   36  O   MOL     1     -46.158  -0.330  19.825  1.00  0.00     0.000 OA
HETATM   37  C   MOL     1     -47.156  -0.260  19.852  1.00  0.00     0.096 A 
HETATM   38  C   MOL     1     -47.683  -0.375  19.004  1.00  0.00     0.133 A 
HETATM   39  C   MOL     1     -47.239  -0.796  18.207  1.00  0.00     0.055 A 
HETATM   40  O   MOL     1     -47.880  -1.902  17.688  1.00  0.00     0.000 OA
HETATM   41  C   MOL     1     -46.235  -0.820  18.164  1.00  0.00     0.007 A 
HETATM   42  H   MOL     1     -48.387  -0.886  17.382  1.00  0.00     0.000 HD
HETATM   43  O   MOL     1     -47.316  -1.286  16.546  1.00  0.00     0.000 OA
HETATM   44  C   MOL     1     -46.328  -1.451  16.550  1.00  0.00     0.057 A 
HETATM   45  C   MOL     1     -47.859  -1.543  15.745  1.00  0.00     0.071 C 
HETATM   46  O   MOL     1     -45.786  -1.194  17.352  1.00  0.00     0.000 OA
HETATM   47  C   MOL     1     -45.863  -1.684  15.691  1.00  0.00     0.154 A 
HETATM   48  C   MOL     1     -46.411  -1.988  14.906  1.00  0.00     0.211 A 
HETATM   49  C   MOL     1     -47.393  -1.775  14.886  1.00  0.00     0.146 C 
BRANCH  37  50
HETATM   50  C   MOL     1     -47.714  -0.829  20.978  1.00  0.00     0.297 C 
HETATM   51  O   MOL     1     -48.243   0.483  20.979  1.00  0.00    -0.188 OA
HETATM   52  O   MOL     1     -46.672  -0.027  21.499  1.00  0.00    -0.188 OA
ENDBRANCH  37  50
BRANCH  38  53
HETATM   53  O   MOL     1     -48.574   0.639  18.718  1.00  0.00    -0.395 OA
HETATM   54  H   MOL     1     -47.776   0.469  17.870  1.00  0.00     0.210 HD
ENDBRANCH  38  53
BRANCH  47  55
HETATM   55  O   MOL     1     -44.767  -0.905  15.382  1.00  0.00    -0.393 OA
HETATM   56  H   MOL     1     -45.177  -1.515  14.463  1.00  0.00     0.210 HD
ENDBRANCH  47  55
BRANCH  48  57
HETATM   57  O   MOL     1     -46.059  -3.211  14.375  1.00  0.00    -0.392 OA
HETATM   58  H   MOL     1     -45.191  -2.703  14.986  1.00  0.00     0.210 HD
ENDBRANCH  48  57
BRANCH  49  59
HETATM   59  O   MOL     1     -47.829  -1.089  13.772  1.00  0.00    -0.399 OA
HETATM   60  H   MOL     1     -46.960  -1.846  13.540  1.00  0.00     0.209 HD
ENDBRANCH  49  59
BRANCH  45  61
HETATM   61  C   MOL     1     -48.956  -2.321  16.055  1.00  0.00     0.292 C 
HETATM   62  O   MOL     1     -49.020  -2.213  14.647  1.00  0.00    -0.188 OA
HETATM   63  O   MOL     1     -49.518  -1.044  15.823  1.00  0.00    -0.188 OA
ENDBRANCH  45  61
ENDBRANCH   1  35
TORSDOF 8
ENDMDL
MODEL 2
REMARK VINA RESULT:     -10.8      1.980      3.103
REMARK  8 active torsions:
REMARK  status: ('A' for Active; 'I' for Inactive)
REMARK    1  A    between atoms: O_1  and  C_33 
REMARK    2  A    between atoms: O_1  and  C_49 
REMARK    3  A    between atoms: O_8  and  C_53 
REMARK    4  A    between atoms: O_12  and  C_56 
REMARK    5  A    between atoms: O_13  and  C_57 
REMARK    6  A    between atoms: O_14  and  C_59 
REMARK    7  A    between atoms: C_52  and  C_55 
REMARK    8  A    between atoms: C_58  and  C_60 
ROOT
HETATM    1  O   MOL     1     -46.846  -1.689  18.199  1.00  0.00     0.000 OA
ENDROOT
BRANCH   1   2
HETATM    2  C   MOL     1     -46.237  -1.046  18.667  1.00  0.00     0.007 C 
HETATM    3  C   MOL     1     -45.235  -0.872  18.285  1.00  0.00    -0.058 C 
HETATM    4  C   MOL     1     -44.759   0.213  18.442  1.00  0.00    -0.007 C 
HETATM    5  C   MOL     1     -44.490  -1.112  17.662  1.00  0.00     0.027 C 
HETATM    6  C   MOL     1     -45.371  -1.580  17.592  1.00  0.00    -0.005 C 
HETATM    7  C   MOL     1     -44.940   0.407  19.590  1.00  0.00    -0.037 A 
HETATM    8  C   MOL     1     -43.623  -0.000  18.429  1.00  0.00     0.006 C 
HETATM    9  C   MOL     1     -44.487   1.491  19.680  1.00  0.00     0.013 A 
HETATM   10  C   MOL     1     -45.969   0.319  19.924  1.00  0.00     0.014 C 
HETATM   11  C   MOL     1     -44.979   0.301  20.964  1.00  0.00     0.081 C 
HETATM   12  C   MOL     1     -44.676   1.693  20.763  1.00  0.00    -0.024 A 
HETATM   13  C   MOL     1     -43.375   1.238  19.713  1.00  0.00    -0.033 A 
HETATM   14  C   MOL     1     -42.816   1.986  20.086  1.00  0.00    -0.030 A 
HETATM   15  C   MOL     1     -43.015   0.709  18.891  1.00  0.00     0.011 C 
HETATM   16  C   MOL     1     -42.240   0.458  19.788  1.00  0.00     0.044 C 
HETATM   17  C   MOL     1     -43.148   2.500  20.879  1.00  0.00    -0.018 A 
HETATM   18  C   MOL     1     -42.387   2.863  21.668  1.00  0.00    -0.002 C 
HETATM   19  C   MOL     1     -44.086   2.372  21.201  1.00  0.00    -0.036 C 
HETATM   20  C   MOL     1     -41.826   2.074  19.772  1.00  0.00     0.041 A 
HETATM   21  C   MOL     1     -41.551   3.316  21.047  1.00  0.00    -0.059 C 
HETATM   22  C   MOL     1     -42.945   3.794  22.167  1.00  0.00     0.003 C 
HETATM   23  C   MOL     1     -41.205   2.778  20.223  1.00  0.00     0.009 C 
HETATM   24  C   MOL     1     -40.920   4.085  21.485  1.00  0.00     0.014 C 
HETATM   25  C   MOL     1     -40.311   2.792  21.345  1.00  0.00     0.028 C 
HETATM   26  C   MOL     1     -41.298   4.681  22.310  1.00  0.00     0.253 A 
HETATM   27  C   MOL     1     -42.333   4.569  22.621  1.00  0.00     0.003 A 
HETATM   28  O   MOL     1     -41.309   5.714  23.424  1.00  0.00    -0.382 OA
HETATM   29  C   MOL     1     -43.383   5.463  22.626  1.00  0.00     0.044 C 
HETATM   30  C   MOL     1     -42.187   5.241  23.348  1.00  0.00     0.080 A 
HETATM   31  O   MOL     1     -42.936   5.476  23.968  1.00  0.00     0.000 OA
HETATM   32  C   MOL     1     -42.490   2.288  18.781  1.00  0.00     0.025 C 
HETATM   33  C   MOL     1     -46.622  -0.412  19.459  1.00  0.00    -0.012 C 
HETATM   34  O   MOL     1     -45.615   1.564  21.085  1.00  0.00     0.000 OA
ENDBRANCH   1   2
BRANCH   1  35
HETATM   35  C   MOL     1     -47.838  -1.592  18.283  1.00  0.00    -0.027 A 
HETATM   36  O   MOL     1     -48.269  -1.651  19.185  1.00  0.00     0.000 OA
HETATM   37  C   MOL     1     -49.267  -1.654  19.266  1.00  0.00     0.096 A 
HETATM   38  C   MOL     1     -49.829  -1.497  18.449  1.00  0.00     0.133 A 
HETATM   39  C   MOL     1     -49.407  -1.587  17.541  1.00  0.00     0.055 A 
HETATM   40  O   MOL     1     -50.022  -2.478  16.687  1.00  0.00     0.000 OA
HETATM   41  C   MOL     1     -48.405  -1.535  17.462  1.00  0.00     0.007 A 
HETATM   42  H   MOL     1     -50.588  -1.451  16.772  1.00  0.00     0.000 HD
HETATM   43  O   MOL     1     -49.543  -1.470  15.817  1.00  0.00     0.000 OA
HETATM   44  C   MOL     1     -48.550  -1.568  15.733  1.00  0.00     0.057 A 
HETATM   45  C   MOL     1     -50.114  -1.463  14.994  1.00  0.00     0.071 C 
HETATM   46  O   MOL     1     -47.981  -1.575  16.557  1.00  0.00     0.000 OA
HETATM   47  C   MOL     1     -48.118  -1.458  14.833  1.00  0.00     0.154 A 
HETATM   48  C   MOL     1     -48.691  -1.501  14.008  1.00  0.00     0.211 A 
HETATM   49  C   MOL     1     -49.681  -1.353  14.094  1.00  0.00     0.146 C 
BRANCH  37  50
HETATM   50  C   MOL     1     -49.742  -2.612  20.137  1.00  0.00     0.297 C 
HETATM   51  O   MOL     1     -50.316  -1.415  20.624  1.00  0.00    -0.188 OA
HETATM   52  O   MOL     1     -48.702  -1.993  20.869  1.00  0.00    -0.188 OA
ENDBRANCH  37  50
BRANCH  38  53
HETATM   53  O   MOL     1     -50.777  -0.501  18.564  1.00  0.00    -0.395 OA
HETATM   54  H   MOL     1     -51.242  -1.564  18.366  1.00  0.00     0.210 HD
ENDBRANCH  38  53
BRANCH  47  55
HETATM   55  O   MOL     1     -47.074  -0.557  14.783  1.00  0.00    -0.393 OA
HETATM   56  H   MOL     1     -46.750  -1.657  14.522  1.00  0.00     0.210 HD
ENDBRANCH  47  55
BRANCH  48  57
HETATM   57  O   MOL     1     -48.311  -2.439  13.071  1.00  0.00    -0.392 OA
HETATM   58  H   MOL     1     -49.381  -2.636  13.517  1.00  0.00     0.210 HD
ENDBRANCH  48  57
BRANCH  49  59
HETATM   59  O   MOL     1     -50.201  -0.348  13.306  1.00  0.00    -0.399 OA
HETATM   60  H   MOL     1     -49.114  -0.669  12.992  1.00  0.00     0.209 HD
ENDBRANCH  49  59
BRANCH  45  61
HETATM   61  C   MOL     1     -51.158  -2.364  15.045  1.00  0.00     0.292 C 
HETATM   62  O   MOL     1     -51.312  -1.757  13.777  1.00  0.00    -0.188 OA
HETATM   63  O   MOL     1     -51.783  -1.125  15.319  1.00  0.00    -0.188 OA
ENDBRANCH  45  61
ENDBRANCH   1  35
TORSDOF 8
ENDMDL
MODEL 3
REMARK VINA RESULT:     -10.8      3.714      7.219
REMARK  8 active torsions:
REMARK  status: ('A' for Active; 'I' for Inactive)
REMARK    1  A    between atoms: O_1  and  C_33 
REMARK    2  A    between atoms: O_1  and  C_49 
REMARK    3  A    between atoms: O_8  and  C_53 
REMARK    4  A    between atoms: O_12  and  C_56 
REMARK    5  A    between atoms: O_13  and  C_57 
REMARK    6  A    between atoms: O_14  and  C_59 
REMARK    7  A    between atoms: C_52  and  C_55 
REMARK    8  A    between atoms: C_58  and  C_60 
ROOT
HETATM    1  O   MOL     1     -50.563  -0.755  14.785  1.00  0.00     0.000 OA
ENDROOT
BRANCH   1   2
HETATM    2  C   MOL     1     -49.724  -0.735  15.331  1.00  0.00     0.007 C 
HETATM    3  C   MOL     1     -48.876  -1.351  15.045  1.00  0.00    -0.058 C 
HETATM    4  C   MOL     1     -47.781  -0.939  15.288  1.00  0.00    -0.007 C 
HETATM    5  C   MOL     1     -48.482  -2.076  14.479  1.00  0.00     0.027 C 
HETATM    6  C   MOL     1     -49.418  -1.766  14.314  1.00  0.00    -0.005 C 
HETATM    7  C   MOL     1     -47.868  -0.636  16.423  1.00  0.00    -0.037 A 
HETATM    8  C   MOL     1     -47.154  -1.907  15.365  1.00  0.00     0.006 C 
HETATM    9  C   MOL     1     -46.783  -0.211  16.597  1.00  0.00     0.013 A 
HETATM   10  C   MOL     1     -48.668   0.058  16.662  1.00  0.00     0.014 C 
HETATM   11  C   MOL     1     -48.095  -0.634  17.783  1.00  0.00     0.081 C 
HETATM   12  C   MOL     1     -46.864   0.102  17.667  1.00  0.00    -0.024 A 
HETATM   13  C   MOL     1     -46.205  -1.188  16.716  1.00  0.00    -0.033 A 
HETATM   14  C   MOL     1     -45.316  -1.062  17.167  1.00  0.00    -0.030 A 
HETATM   15  C   MOL     1     -46.266  -1.841  15.907  1.00  0.00     0.011 C 
HETATM   16  C   MOL     1     -45.996  -2.544  16.857  1.00  0.00     0.044 C 
HETATM   17  C   MOL     1     -45.244  -0.440  17.949  1.00  0.00    -0.018 A 
HETATM   18  C   MOL     1     -44.531  -0.712  18.816  1.00  0.00    -0.002 C 
HETATM   19  C   MOL     1     -46.009   0.159  18.183  1.00  0.00    -0.036 C 
HETATM   20  C   MOL     1     -44.544  -1.727  16.945  1.00  0.00     0.041 A 
HETATM   21  C   MOL     1     -43.574  -1.023  18.290  1.00  0.00    -0.059 C 
HETATM   22  C   MOL     1     -44.287   0.351  19.303  1.00  0.00     0.003 C 
HETATM   23  C   MOL     1     -43.651  -1.673  17.477  1.00  0.00     0.009 C 
HETATM   24  C   MOL     1     -42.626  -0.933  18.812  1.00  0.00     0.014 C 
HETATM   25  C   MOL     1     -43.128  -2.271  18.672  1.00  0.00     0.028 C 
HETATM   26  C   MOL     1     -42.530  -0.221  19.625  1.00  0.00     0.253 A 
HETATM   27  C   MOL     1     -43.348   0.460  19.840  1.00  0.00     0.003 A 
HETATM   28  O   MOL     1     -41.892   0.540  20.776  1.00  0.00    -0.382 OA
HETATM   29  C   MOL     1     -43.425   1.836  19.792  1.00  0.00     0.044 C 
HETATM   30  C   MOL     1     -42.829   0.844  20.605  1.00  0.00     0.080 A 
HETATM   31  O   MOL     1     -43.229   1.569  21.166  1.00  0.00     0.000 OA
HETATM   32  C   MOL     1     -44.756  -1.133  15.909  1.00  0.00     0.025 C 
HETATM   33  C   MOL     1     -49.602   0.008  16.112  1.00  0.00    -0.012 C 
HETATM   34  O   MOL     1     -47.631   0.702  17.901  1.00  0.00     0.000 OA
ENDBRANCH   1   2
BRANCH   1  35
HETATM   35  C   MOL     1     -51.407  -0.358  15.148  1.00  0.00    -0.027 A 
HETATM   36  O   MOL     1     -51.938  -0.858  15.834  1.00  0.00     0.000 OA
HETATM   37  C   MOL     1     -52.831  -0.514  16.128  1.00  0.00     0.096 A 
HETATM   38  C   MOL     1     -53.145   0.384  15.805  1.00  0.00     0.133 A 
HETATM   39  C   MOL     1     -52.688   0.805  15.015  1.00  0.00     0.055 A 
HETATM   40  O   MOL     1     -53.515   1.145  13.964  1.00  0.00     0.000 OA
HETATM   41  C   MOL     1     -51.770   0.487  14.755  1.00  0.00     0.007 A 
HETATM   42  H   MOL     1     -53.564   1.907  14.860  1.00  0.00     0.000 HD
HETATM   43  O   MOL     1     -52.520   2.151  13.935  1.00  0.00     0.000 OA
HETATM   44  C   MOL     1     -51.676   1.753  13.572  1.00  0.00     0.057 A 
HETATM   45  C   MOL     1     -52.908   2.969  13.508  1.00  0.00     0.071 C 
HETATM   46  O   MOL     1     -51.289   0.935  14.000  1.00  0.00     0.000 OA
HETATM   47  C   MOL     1     -51.121   2.280  12.921  1.00  0.00     0.154 A 
HETATM   48  C   MOL     1     -51.533   3.072  12.459  1.00  0.00     0.211 A 
HETATM   49  C   MOL     1     -52.353   3.497  12.856  1.00  0.00     0.146 C 
BRANCH  37  50
HETATM   50  C   MOL     1     -53.800  -1.493  16.191  1.00  0.00     0.297 C 
HETATM   51  O   MOL     1     -53.703  -1.043  17.528  1.00  0.00    -0.188 OA
HETATM   52  O   MOL     1     -52.650  -2.140  16.700  1.00  0.00    -0.188 OA
ENDBRANCH  37  50
BRANCH  38  53
HETATM   53  O   MOL     1     -53.549   1.260  16.790  1.00  0.00    -0.395 OA
HETATM   54  H   MOL     1     -54.387   1.037  15.995  1.00  0.00     0.210 HD
ENDBRANCH  38  53
BRANCH  47  55
HETATM   55  O   MOL     1     -49.789   2.414  13.250  1.00  0.00    -0.393 OA
HETATM   56  H   MOL     1     -50.121   3.116  12.365  1.00  0.00     0.210 HD
ENDBRANCH  47  55
BRANCH  48  57
HETATM   57  O   MOL     1     -51.492   3.042  11.081  1.00  0.00    -0.392 OA
HETATM   58  H   MOL     1     -52.294   2.312  11.537  1.00  0.00     0.210 HD
ENDBRANCH  48  57
BRANCH  49  59
HETATM   59  O   MOL     1     -52.252   4.846  13.121  1.00  0.00    -0.399 OA
HETATM   60  H   MOL     1     -51.211   4.301  13.089  1.00  0.00     0.209 HD
ENDBRANCH  49  59
BRANCH  45  61
HETATM   61  C   MOL     1     -54.241   2.835  13.179  1.00  0.00     0.292 C 
HETATM   62  O   MOL     1     -53.922   4.136  12.725  1.00  0.00    -0.188 OA
HETATM   63  O   MOL     1     -54.272   3.635  14.346  1.00  0.00    -0.188 OA
ENDBRANCH  45  61
ENDBRANCH   1  35
TORSDOF 8
ENDMDL
MODEL 4
REMARK VINA RESULT:     -10.5      2.641      4.676
REMARK  8 active torsions:
REMARK  status: ('A' for Active; 'I' for Inactive)
REMARK    1  A    between atoms: O_1  and  C_33 
REMARK    2  A    between atoms: O_1  and  C_49 
REMARK    3  A    between atoms: O_8  and  C_53 
REMARK    4  A    between atoms: O_12  and  C_56 
REMARK    5  A    between atoms: O_13  and  C_57 
REMARK    6  A    between atoms: O_14  and  C_59 
REMARK    7  A    between atoms: C_52  and  C_55 
REMARK    8  A    between atoms: C_58  and  C_60 
ROOT
HETATM    1  O   MOL     1     -47.041  -2.474  16.599  1.00  0.00     0.000 OA
ENDROOT
BRANCH   1   2
HETATM    2  C   MOL     1     -46.594  -1.866  17.257  1.00  0.00     0.007 C 
HETATM    3  C   MOL     1     -45.600  -1.478  17.050  1.00  0.00    -0.058 C 
HETATM    4  C   MOL     1     -45.325  -0.395  17.473  1.00  0.00    -0.007 C 
HETATM    5  C   MOL     1     -44.768  -1.477  16.495  1.00  0.00     0.027 C 
HETATM    6  C   MOL     1     -45.550  -2.037  16.222  1.00  0.00    -0.005 C 
HETATM    7  C   MOL     1     -45.648  -0.473  18.603  1.00  0.00    -0.037 A 
HETATM    8  C   MOL     1     -44.174  -0.441  17.568  1.00  0.00     0.006 C 
HETATM    9  C   MOL     1     -45.388   0.620  18.958  1.00  0.00     0.013 A 
HETATM   10  C   MOL     1     -46.677  -0.770  18.777  1.00  0.00     0.014 C 
HETATM   11  C   MOL     1     -45.806  -0.869  19.915  1.00  0.00     0.081 C 
HETATM   12  C   MOL     1     -45.714   0.563  20.026  1.00  0.00    -0.024 A 
HETATM   13  C   MOL     1     -44.258   0.522  19.087  1.00  0.00    -0.033 A 
HETATM   14  C   MOL     1     -43.869   1.245  19.666  1.00  0.00    -0.030 A 
HETATM   15  C   MOL     1     -43.738   0.232  18.232  1.00  0.00     0.011 C 
HETATM   16  C   MOL     1     -43.025  -0.091  19.158  1.00  0.00     0.044 C 
HETATM   17  C   MOL     1     -44.357   1.531  20.492  1.00  0.00    -0.018 A 
HETATM   18  C   MOL     1     -43.747   1.823  21.429  1.00  0.00    -0.002 C 
HETATM   19  C   MOL     1     -45.288   1.209  20.659  1.00  0.00    -0.036 C 
HETATM   20  C   MOL     1     -42.879   1.534  19.507  1.00  0.00     0.041 A 
HETATM   21  C   MOL     1     -42.938   2.507  21.021  1.00  0.00    -0.059 C 
HETATM   22  C   MOL     1     -44.495   2.542  22.021  1.00  0.00     0.003 C 
HETATM   23  C   MOL     1     -42.429   2.207  20.161  1.00  0.00     0.009 C 
HETATM   24  C   MOL     1     -42.487   3.246  21.677  1.00  0.00     0.014 C 
HETATM   25  C   MOL     1     -41.665   2.108  21.372  1.00  0.00     0.028 C 
HETATM   26  C   MOL     1     -43.036   3.598  22.544  1.00  0.00     0.253 A 
HETATM   27  C   MOL     1     -44.065   3.281  22.690  1.00  0.00     0.003 A 
HETATM   28  O   MOL     1     -43.326   4.363  23.825  1.00  0.00    -0.382 OA
HETATM   29  C   MOL     1     -45.241   4.000  22.730  1.00  0.00     0.044 C 
HETATM   30  C   MOL     1     -44.104   3.800  23.546  1.00  0.00     0.080 A 
HETATM   31  O   MOL     1     -44.939   3.794  24.096  1.00  0.00     0.000 OA
HETATM   32  C   MOL     1     -43.467   1.857  18.497  1.00  0.00     0.025 C 
HETATM   33  C   MOL     1     -47.154  -1.471  18.099  1.00  0.00    -0.012 C 
HETATM   34  O   MOL     1     -46.647   0.240  20.192  1.00  0.00     0.000 OA
ENDBRANCH   1   2
BRANCH   1  35
HETATM   35  C   MOL     1     -47.913  -2.908  16.829  1.00  0.00    -0.027 A 
HETATM   36  O   MOL     1     -47.923  -3.737  17.392  1.00  0.00     0.000 OA
HETATM   37  C   MOL     1     -48.780  -4.231  17.543  1.00  0.00     0.096 A 
HETATM   38  C   MOL     1     -49.643  -3.837  17.211  1.00  0.00     0.133 A 
HETATM   39  C   MOL     1     -49.611  -3.098  16.530  1.00  0.00     0.055 A 
HETATM   40  O   MOL     1     -50.320  -3.332  15.370  1.00  0.00     0.000 OA
HETATM   41  C   MOL     1     -48.761  -2.574  16.418  1.00  0.00     0.007 A 
HETATM   42  H   MOL     1     -51.003  -3.021  16.276  1.00  0.00     0.000 HD
HETATM   43  O   MOL     1     -50.449  -1.935  15.555  1.00  0.00     0.000 OA
HETATM   44  C   MOL     1     -49.577  -1.501  15.325  1.00  0.00     0.057 A 
HETATM   45  C   MOL     1     -51.290  -1.631  15.104  1.00  0.00     0.071 C 
HETATM   46  O   MOL     1     -48.737  -1.806  15.777  1.00  0.00     0.000 OA
HETATM   47  C   MOL     1     -49.575  -0.643  14.802  1.00  0.00     0.154 A 
HETATM   48  C   MOL     1     -50.408  -0.368  14.312  1.00  0.00     0.211 A 
HETATM   49  C   MOL     1     -51.288  -0.773  14.581  1.00  0.00     0.146 C 
BRANCH  37  50
HETATM   50  C   MOL     1     -48.658  -5.597  17.396  1.00  0.00     0.297 C 
HETATM   51  O   MOL     1     -48.940  -5.440  18.773  1.00  0.00    -0.188 OA
HETATM   52  O   MOL     1     -47.422  -5.218  17.970  1.00  0.00    -0.188 OA
ENDBRANCH  37  50
BRANCH  38  53
HETATM   53  O   MOL     1     -50.648  -3.733  18.150  1.00  0.00    -0.395 OA
HETATM   54  H   MOL     1     -49.581  -3.878  18.625  1.00  0.00     0.210 HD
ENDBRANCH  38  53
BRANCH  47  55
HETATM   55  O   MOL     1     -48.849   0.389  15.360  1.00  0.00    -0.393 OA
HETATM   56  H   MOL     1     -49.956   0.333  15.755  1.00  0.00     0.210 HD
ENDBRANCH  47  55
BRANCH  48  57
HETATM   57  O   MOL     1     -50.251  -0.138  12.961  1.00  0.00    -0.392 OA
HETATM   58  H   MOL     1     -50.712   0.778  13.538  1.00  0.00     0.210 HD
ENDBRANCH  48  57
BRANCH  49  59
HETATM   59  O   MOL     1     -52.275   0.129  14.919  1.00  0.00    -0.399 OA
HETATM   60  H   MOL     1     -52.586  -0.990  15.104  1.00  0.00     0.209 HD
ENDBRANCH  49  59
BRANCH  45  61
HETATM   61  C   MOL     1     -52.016  -2.663  14.547  1.00  0.00     0.292 C 
HETATM   62  O   MOL     1     -52.750  -1.512  14.178  1.00  0.00    -0.188 OA
HETATM   63  O   MOL     1     -52.758  -2.332  15.704  1.00  0.00    -0.188 OA
ENDBRANCH  45  61
ENDBRANCH   1  35
TORSDOF 8
ENDMDL
MODEL 5
REMARK VINA RESULT:     -10.0      2.585      9.391
REMARK  8 active torsions:
REMARK  status: ('A' for Active; 'I' for Inactive)
REMARK    1  A    between atoms: O_1  and  C_33 
REMARK    2  A    between atoms: O_1  and  C_49 
REMARK    3  A    between atoms: O_8  and  C_53 
REMARK    4  A    between atoms: O_12  and  C_56 
REMARK    5  A    between atoms: O_13  and  C_57 
REMARK    6  A    between atoms: O_14  and  C_59 
REMARK    7  A    between atoms: C_52  and  C_55 
REMARK    8  A    between atoms: C_58  and  C_60 
ROOT
HETATM    1  O   MOL     1     -42.835  -0.336  19.833  1.00  0.00     0.000 OA
ENDROOT
BRANCH   1   2
HETATM    2  C   MOL     1     -43.640  -0.410  19.242  1.00  0.00     0.007 C 
HETATM    3  C   MOL     1     -43.751  -1.266  18.582  1.00  0.00    -0.058 C 
HETATM    4  C   MOL     1     -44.859  -1.645  18.344  1.00  0.00    -0.007 C 
HETATM    5  C   MOL     1     -43.375  -2.090  18.159  1.00  0.00     0.027 C 
HETATM    6  C   MOL     1     -42.846  -1.595  18.848  1.00  0.00    -0.005 C 
HETATM    7  C   MOL     1     -45.409  -0.650  18.034  1.00  0.00    -0.037 A 
HETATM    8  C   MOL     1     -44.739  -2.161  17.317  1.00  0.00     0.006 C 
HETATM    9  C   MOL     1     -46.492  -1.074  17.846  1.00  0.00     0.013 A 
HETATM   10  C   MOL     1     -45.361   0.157  18.759  1.00  0.00     0.014 C 
HETATM   11  C   MOL     1     -45.762   0.540  17.433  1.00  0.00     0.081 C 
HETATM   12  C   MOL     1     -47.027  -0.131  17.574  1.00  0.00    -0.024 A 
HETATM   13  C   MOL     1     -46.348  -1.530  16.809  1.00  0.00    -0.033 A 
HETATM   14  C   MOL     1     -47.216  -1.684  16.328  1.00  0.00    -0.030 A 
HETATM   15  C   MOL     1     -45.604  -2.256  16.743  1.00  0.00     0.011 C 
HETATM   16  C   MOL     1     -45.724  -1.828  15.616  1.00  0.00     0.044 C 
HETATM   17  C   MOL     1     -47.938  -0.992  16.379  1.00  0.00    -0.018 A 
HETATM   18  C   MOL     1     -48.598  -0.803  15.450  1.00  0.00    -0.002 C 
HETATM   19  C   MOL     1     -47.854  -0.230  17.020  1.00  0.00    -0.036 C 
HETATM   20  C   MOL     1     -47.269  -2.456  15.628  1.00  0.00     0.041 A 
HETATM   21  C   MOL     1     -48.880  -1.846  15.103  1.00  0.00    -0.059 C 
HETATM   22  C   MOL     1     -49.598  -0.349  15.922  1.00  0.00     0.003 C 
HETATM   23  C   MOL     1     -48.127  -2.566  15.048  1.00  0.00     0.009 C 
HETATM   24  C   MOL     1     -49.795  -1.988  14.535  1.00  0.00     0.014 C 
HETATM   25  C   MOL     1     -48.578  -2.076  13.777  1.00  0.00     0.028 C 
HETATM   26  C   MOL     1     -50.601  -1.267  14.630  1.00  0.00     0.253 A 
HETATM   27  C   MOL     1     -50.522  -0.471  15.364  1.00  0.00     0.003 A 
HETATM   28  O   MOL     1     -51.941  -0.597  14.378  1.00  0.00    -0.382 OA
HETATM   29  C   MOL     1     -51.287  -0.176  16.473  1.00  0.00     0.044 C 
HETATM   30  C   MOL     1     -51.406  -0.108  15.066  1.00  0.00     0.080 A 
HETATM   31  O   MOL     1     -51.777   0.717  15.493  1.00  0.00     0.000 OA
HETATM   32  C   MOL     1     -47.092  -3.008  16.693  1.00  0.00     0.025 C 
HETATM   33  C   MOL     1     -44.470   0.278  19.366  1.00  0.00    -0.012 C 
HETATM   34  O   MOL     1     -46.943   0.633  18.216  1.00  0.00     0.000 OA
ENDBRANCH   1   2
BRANCH   1  35
HETATM   35  C   MOL     1     -42.623   0.531  20.286  1.00  0.00    -0.027 A 
HETATM   36  O   MOL     1     -42.348   1.324  19.738  1.00  0.00     0.000 OA
HETATM   37  C   MOL     1     -42.040   2.163  20.189  1.00  0.00     0.096 A 
HETATM   38  C   MOL     1     -42.102   2.238  21.189  1.00  0.00     0.133 A 
HETATM   39  C   MOL     1     -42.233   1.404  21.734  1.00  0.00     0.055 A 
HETATM   40  O   MOL     1     -41.288   1.182  22.714  1.00  0.00     0.000 OA
HETATM   41  C   MOL     1     -42.589   0.578  21.284  1.00  0.00     0.007 A 
HETATM   42  H   MOL     1     -42.086   1.993  23.013  1.00  0.00     0.000 HD
HETATM   43  O   MOL     1     -42.473   0.657  23.280  1.00  0.00     0.000 OA
HETATM   44  C   MOL     1     -42.686  -0.210  22.827  1.00  0.00     0.057 A 
HETATM   45  C   MOL     1     -42.391   0.690  24.277  1.00  0.00     0.071 C 
HETATM   46  O   MOL     1     -42.767  -0.242  21.829  1.00  0.00     0.000 OA
HETATM   47  C   MOL     1     -43.008  -0.988  23.375  1.00  0.00     0.154 A 
HETATM   48  C   MOL     1     -42.878  -0.969  24.372  1.00  0.00     0.211 A 
HETATM   49  C   MOL     1     -42.714  -0.088  24.825  1.00  0.00     0.146 C 
BRANCH  37  50
HETATM   50  C   MOL     1     -40.903   2.701  19.624  1.00  0.00     0.297 C 
HETATM   51  O   MOL     1     -41.644   3.841  20.014  1.00  0.00    -0.188 OA
HETATM   52  O   MOL     1     -41.875   2.855  18.609  1.00  0.00    -0.188 OA
ENDBRANCH  37  50
BRANCH  38  53
HETATM   53  O   MOL     1     -42.753   3.360  21.660  1.00  0.00    -0.395 OA
HETATM   54  H   MOL     1     -41.823   3.612  20.985  1.00  0.00     0.210 HD
ENDBRANCH  38  53
BRANCH  47  55
HETATM   55  O   MOL     1     -44.179  -1.573  22.942  1.00  0.00    -0.393 OA
HETATM   56  H   MOL     1     -44.321  -0.462  23.301  1.00  0.00     0.210 HD
ENDBRANCH  47  55
BRANCH  48  57
HETATM   57  O   MOL     1     -42.193  -2.044  24.900  1.00  0.00    -0.392 OA
HETATM   58  H   MOL     1     -42.164  -2.007  23.724  1.00  0.00     0.210 HD
ENDBRANCH  48  57
BRANCH  49  59
HETATM   59  O   MOL     1     -43.591   0.227  25.842  1.00  0.00    -0.399 OA
HETATM   60  H   MOL     1     -42.782  -0.566  26.157  1.00  0.00     0.209 HD
ENDBRANCH  49  59
BRANCH  45  61
HETATM   61  C   MOL     1     -41.220   1.276  24.710  1.00  0.00     0.292 C 
HETATM   62  O   MOL     1     -41.863   0.903  25.914  1.00  0.00    -0.188 OA
HETATM   63  O   MOL     1     -42.187   2.286  24.923  1.00  0.00    -0.188 OA
ENDBRANCH  45  61
ENDBRANCH   1  35
TORSDOF 8
ENDMDL
MODEL 6
REMARK VINA RESULT:      -9.9      1.259      2.853
REMARK  8 active torsions:
REMARK  status: ('A' for Active; 'I' for Inactive)
REMARK    1  A    between atoms: O_1  and  C_33 
REMARK    2  A    between atoms: O_1  and  C_49 
REMARK    3  A    between atoms: O_8  and  C_53 
REMARK    4  A    between atoms: O_12  and  C_56 
REMARK    5  A    between atoms: O_13  and  C_57 
REMARK    6  A    between atoms: O_14  and  C_59 
REMARK    7  A    between atoms: C_52  and  C_55 
REMARK    8  A    between atoms: C_58  and  C_60 
ROOT
HETATM    1  O   MOL     1     -45.730  -1.028  18.379  1.00  0.00     0.000 OA
ENDROOT
BRANCH   1   2
HETATM    2  C   MOL     1     -45.050  -0.351  18.664  1.00  0.00     0.007 C 
HETATM    3  C   MOL     1     -44.402  -0.555  19.512  1.00  0.00    -0.058 C 
HETATM    4  C   MOL     1     -43.302  -0.089  19.499  1.00  0.00    -0.007 C 
HETATM    5  C   MOL     1     -44.156  -1.121  20.299  1.00  0.00     0.027 C 
HETATM    6  C   MOL     1     -44.895  -1.407  19.689  1.00  0.00    -0.005 C 
HETATM    7  C   MOL     1     -43.507   1.041  19.238  1.00  0.00    -0.037 A 
HETATM    8  C   MOL     1     -43.042  -0.013  20.622  1.00  0.00     0.006 C 
HETATM    9  C   MOL     1     -42.399   1.440  19.205  1.00  0.00     0.013 A 
HETATM   10  C   MOL     1     -44.076   1.217  18.330  1.00  0.00     0.014 C 
HETATM   11  C   MOL     1     -43.982   2.337  19.225  1.00  0.00     0.081 C 
HETATM   12  C   MOL     1     -42.583   2.509  18.934  1.00  0.00    -0.024 A 
HETATM   13  C   MOL     1     -42.195   1.548  20.322  1.00  0.00    -0.033 A 
HETATM   14  C   MOL     1     -41.417   2.153  20.520  1.00  0.00    -0.030 A 
HETATM   15  C   MOL     1     -42.302   0.675  20.880  1.00  0.00     0.011 C 
HETATM   16  C   MOL     1     -42.458   1.575  21.676  1.00  0.00     0.044 C 
HETATM   17  C   MOL     1     -41.305   2.999  19.995  1.00  0.00    -0.018 A 
HETATM   18  C   MOL     1     -40.897   3.938  20.528  1.00  0.00    -0.002 C 
HETATM   19  C   MOL     1     -41.871   3.164  19.187  1.00  0.00    -0.036 C 
HETATM   20  C   MOL     1     -40.868   1.993  21.392  1.00  0.00     0.041 A 
HETATM   21  C   MOL     1     -40.006   3.549  21.114  1.00  0.00    -0.059 C 
HETATM   22  C   MOL     1     -40.428   4.572  19.630  1.00  0.00     0.003 C 
HETATM   23  C   MOL     1     -40.125   2.670  21.662  1.00  0.00     0.009 C 
HETATM   24  C   MOL     1     -39.198   4.230  21.368  1.00  0.00     0.014 C 
HETATM   25  C   MOL     1     -40.061   3.863  22.456  1.00  0.00     0.028 C 
HETATM   26  C   MOL     1     -39.040   5.120  20.767  1.00  0.00     0.253 A 
HETATM   27  C   MOL     1     -39.627   5.267  19.864  1.00  0.00     0.003 A 
HETATM   28  O   MOL     1     -38.431   6.437  20.316  1.00  0.00    -0.382 OA
HETATM   29  C   MOL     1     -39.252   5.356  18.540  1.00  0.00     0.044 C 
HETATM   30  C   MOL     1     -39.171   6.145  19.711  1.00  0.00     0.080 A 
HETATM   31  O   MOL     1     -39.422   6.706  18.922  1.00  0.00     0.000 OA
HETATM   32  C   MOL     1     -40.676   1.007  20.713  1.00  0.00     0.025 C 
HETATM   33  C   MOL     1     -44.853   0.516  18.041  1.00  0.00    -0.012 C 
HETATM   34  O   MOL     1     -43.150   2.675  18.126  1.00  0.00     0.000 OA
ENDBRANCH   1   2
BRANCH   1  35
HETATM   35  C   MOL     1     -45.826  -1.267  17.413  1.00  0.00    -0.027 A 
HETATM   36  O   MOL     1     -45.010  -1.467  16.867  1.00  0.00     0.000 OA
HETATM   37  C   MOL     1     -45.089  -1.610  15.879  1.00  0.00     0.096 A 
HETATM   38  C   MOL     1     -46.000  -1.648  15.456  1.00  0.00     0.133 A 
HETATM   39  C   MOL     1     -46.791  -1.303  15.971  1.00  0.00     0.055 A 
HETATM   40  O   MOL     1     -47.531  -0.327  15.336  1.00  0.00     0.000 OA
HETATM   41  C   MOL     1     -46.720  -1.209  16.970  1.00  0.00     0.007 A 
HETATM   42  H   MOL     1     -47.749  -1.411  14.933  1.00  0.00     0.000 HD
HETATM   43  O   MOL     1     -48.502  -1.044  16.074  1.00  0.00     0.000 OA
HETATM   44  C   MOL     1     -48.406  -0.805  17.042  1.00  0.00     0.057 A 
HETATM   45  C   MOL     1     -49.388  -0.937  15.621  1.00  0.00     0.071 C 
HETATM   46  O   MOL     1     -47.519  -0.912  17.494  1.00  0.00     0.000 OA
HETATM   47  C   MOL     1     -49.230  -0.653  17.597  1.00  0.00     0.154 A 
HETATM   48  C   MOL     1     -50.108  -0.498  17.134  1.00  0.00     0.211 A 
HETATM   49  C   MOL     1     -50.212  -0.785  16.177  1.00  0.00     0.146 C 
BRANCH  37  50
HETATM   50  C   MOL     1     -44.127  -0.941  15.151  1.00  0.00     0.297 C 
HETATM   51  O   MOL     1     -44.198  -2.203  14.516  1.00  0.00    -0.188 OA
HETATM   52  O   MOL     1     -43.370  -1.799  15.983  1.00  0.00    -0.188 OA
ENDBRANCH  37  50
BRANCH  38  53
HETATM   53  O   MOL     1     -46.243  -2.756  14.671  1.00  0.00    -0.395 OA
HETATM   54  H   MOL     1     -46.334  -2.975  15.824  1.00  0.00     0.210 HD
ENDBRANCH  38  53
BRANCH  47  55
HETATM   55  O   MOL     1     -49.298  -1.379  18.768  1.00  0.00    -0.393 OA
HETATM   56  H   MOL     1     -49.378  -2.047  17.802  1.00  0.00     0.210 HD
ENDBRANCH  47  55
BRANCH  48  57
HETATM   57  O   MOL     1     -50.761   0.668  17.476  1.00  0.00    -0.392 OA
HETATM   58  H   MOL     1     -49.644   0.841  17.147  1.00  0.00     0.210 HD
ENDBRANCH  48  57
BRANCH  49  59
HETATM   59  O   MOL     1     -51.262  -1.644  15.927  1.00  0.00    -0.399 OA
HETATM   60  H   MOL     1     -50.344  -2.170  16.440  1.00  0.00     0.209 HD
ENDBRANCH  49  59
BRANCH  45  61
HETATM   61  C   MOL     1     -49.320  -0.211  14.450  1.00  0.00     0.292 C 
HETATM   62  O   MOL     1     -50.696  -0.520  14.563  1.00  0.00    -0.188 OA
HETATM   63  O   MOL     1     -49.421  -1.548  13.999  1.00  0.00    -0.188 OA
ENDBRANCH  45  61
ENDBRANCH   1  35
TORSDOF 8
ENDMDL
MODEL 7
REMARK VINA RESULT:      -9.7     19.631     22.822
REMARK  8 active torsions:
REMARK  status: ('A' for Active; 'I' for Inactive)
REMARK    1  A    between atoms: O_1  and  C_33 
REMARK    2  A    between atoms: O_1  and  C_49 
REMARK    3  A    between atoms: O_8  and  C_53 
REMARK    4  A    between atoms: O_12  and  C_56 
REMARK    5  A    between atoms: O_13  and  C_57 
REMARK    6  A    between atoms: O_14  and  C_59 
REMARK    7  A    between atoms: C_52  and  C_55 
REMARK    8  A    between atoms: C_58  and  C_60 
ROOT
HETATM    1  O   MOL     1     -56.655   1.896   1.560  1.00  0.00     0.000 OA
ENDROOT
BRANCH   1   2
HETATM    2  C   MOL     1     -57.130   1.207   2.110  1.00  0.00     0.007 C 
HETATM    3  C   MOL     1     -57.567   0.336   1.629  1.00  0.00    -0.058 C 
HETATM    4  C   MOL     1     -57.600  -0.684   2.249  1.00  0.00    -0.007 C 
HETATM    5  C   MOL     1     -57.831  -0.155   0.799  1.00  0.00     0.027 C 
HETATM    6  C   MOL     1     -57.327   0.706   0.731  1.00  0.00    -0.005 C 
HETATM    7  C   MOL     1     -58.067  -0.345   3.275  1.00  0.00    -0.037 A 
HETATM    8  C   MOL     1     -58.493  -1.245   1.774  1.00  0.00     0.006 C 
HETATM    9  C   MOL     1     -58.045  -1.372   3.851  1.00  0.00     0.013 A 
HETATM   10  C   MOL     1     -57.551   0.465   3.780  1.00  0.00     0.014 C 
HETATM   11  C   MOL     1     -58.880   0.193   4.251  1.00  0.00     0.081 C 
HETATM   12  C   MOL     1     -58.466  -1.054   4.837  1.00  0.00    -0.024 A 
HETATM   13  C   MOL     1     -58.962  -1.874   3.394  1.00  0.00    -0.033 A 
HETATM   14  C   MOL     1     -59.307  -2.637   3.951  1.00  0.00    -0.030 A 
HETATM   15  C   MOL     1     -58.939  -1.983   2.358  1.00  0.00     0.011 C 
HETATM   16  C   MOL     1     -60.116  -2.001   2.649  1.00  0.00     0.044 C 
HETATM   17  C   MOL     1     -59.339  -2.546   4.947  1.00  0.00    -0.018 A 
HETATM   18  C   MOL     1     -60.215  -3.028   5.525  1.00  0.00    -0.002 C 
HETATM   19  C   MOL     1     -58.896  -1.767   5.391  1.00  0.00    -0.036 C 
HETATM   20  C   MOL     1     -59.807  -3.418   3.473  1.00  0.00     0.041 A 
HETATM   21  C   MOL     1     -60.289  -4.070   5.081  1.00  0.00    -0.059 C 
HETATM   22  C   MOL     1     -59.758  -3.186   6.618  1.00  0.00     0.003 C 
HETATM   23  C   MOL     1     -60.258  -4.164   4.043  1.00  0.00     0.009 C 
HETATM   24  C   MOL     1     -60.715  -4.872   5.677  1.00  0.00     0.014 C 
HETATM   25  C   MOL     1     -61.553  -4.373   4.622  1.00  0.00     0.028 C 
HETATM   26  C   MOL     1     -60.703  -4.799   6.759  1.00  0.00     0.253 A 
HETATM   27  C   MOL     1     -60.177  -3.976   7.234  1.00  0.00     0.003 A 
HETATM   28  O   MOL     1     -60.961  -5.175   8.209  1.00  0.00    -0.382 OA
HETATM   29  C   MOL     1     -59.090  -3.958   8.083  1.00  0.00     0.044 C 
HETATM   30  C   MOL     1     -60.458  -4.314   8.133  1.00  0.00     0.080 A 
HETATM   31  O   MOL     1     -60.191  -3.818   8.960  1.00  0.00     0.000 OA
HETATM   32  C   MOL     1     -58.669  -3.473   3.058  1.00  0.00     0.025 C 
HETATM   33  C   MOL     1     -57.079   1.247   3.193  1.00  0.00    -0.012 C 
HETATM   34  O   MOL     1     -58.023  -0.274   5.282  1.00  0.00     0.000 OA
ENDBRANCH   1   2
BRANCH   1  35
HETATM   35  C   MOL     1     -56.841   2.869   1.704  1.00  0.00    -0.027 A 
HETATM   36  O   MOL     1     -57.788   3.195   1.729  1.00  0.00     0.000 OA
HETATM   37  C   MOL     1     -57.980   4.177   1.774  1.00  0.00     0.096 A 
HETATM   38  C   MOL     1     -57.221   4.824   1.893  1.00  0.00     0.133 A 
HETATM   39  C   MOL     1     -56.282   4.511   1.719  1.00  0.00     0.055 A 
HETATM   40  O   MOL     1     -55.574   5.249   0.794  1.00  0.00     0.000 OA
HETATM   41  C   MOL     1     -56.087   3.524   1.724  1.00  0.00     0.007 A 
HETATM   42  H   MOL     1     -55.641   5.768   1.847  1.00  0.00     0.000 HD
HETATM   43  O   MOL     1     -54.580   4.841   1.714  1.00  0.00     0.000 OA
HETATM   44  C   MOL     1     -54.393   3.868   1.570  1.00  0.00     0.057 A 
HETATM   45  C   MOL     1     -53.828   5.501   1.684  1.00  0.00     0.071 C 
HETATM   46  O   MOL     1     -55.146   3.208   1.600  1.00  0.00     0.000 OA
HETATM   47  C   MOL     1     -53.444   3.537   1.595  1.00  0.00     0.154 A 
HETATM   48  C   MOL     1     -52.695   4.202   1.515  1.00  0.00     0.211 A 
HETATM   49  C   MOL     1     -52.879   5.171   1.709  1.00  0.00     0.146 C 
BRANCH  37  50
HETATM   50  C   MOL     1     -58.971   4.580   0.903  1.00  0.00     0.297 C 
HETATM   51  O   MOL     1     -59.444   5.020   2.161  1.00  0.00    -0.188 OA
HETATM   52  O   MOL     1     -59.515   3.420   1.501  1.00  0.00    -0.188 OA
ENDBRANCH  37  50
BRANCH  38  53
HETATM   53  O   MOL     1     -57.364   5.719   2.933  1.00  0.00    -0.395 OA
HETATM   54  H   MOL     1     -56.241   5.521   2.642  1.00  0.00     0.210 HD
ENDBRANCH  38  53
BRANCH  47  55
HETATM   55  O   MOL     1     -53.208   2.478   2.446  1.00  0.00    -0.393 OA
HETATM   56  H   MOL     1     -54.298   2.482   2.001  1.00  0.00     0.210 HD
ENDBRANCH  47  55
BRANCH  48  57
HETATM   57  O   MOL     1     -51.797   3.963   0.496  1.00  0.00    -0.392 OA
HETATM   58  H   MOL     1     -51.439   4.799   1.242  1.00  0.00     0.210 HD
ENDBRANCH  48  57
BRANCH  49  59
HETATM   59  O   MOL     1     -52.078   5.744   2.675  1.00  0.00    -0.399 OA
HETATM   60  H   MOL     1     -52.691   4.821   3.069  1.00  0.00     0.209 HD
ENDBRANCH  49  59
BRANCH  45  61
HETATM   61  C   MOL     1     -54.065   6.561   0.834  1.00  0.00     0.292 C 
HETATM   62  O   MOL     1     -52.767   6.825   1.330  1.00  0.00    -0.188 OA
HETATM   63  O   MOL     1     -54.283   7.117   2.115  1.00  0.00    -0.188 OA
ENDBRANCH  45  61
ENDBRANCH   1  35
TORSDOF 8
ENDMDL
MODEL 8
REMARK VINA RESULT:      -9.6      3.368      7.027
REMARK  8 active torsions:
REMARK  status: ('A' for Active; 'I' for Inactive)
REMARK    1  A    between atoms: O_1  and  C_33 
REMARK    2  A    between atoms: O_1  and  C_49 
REMARK    3  A    between atoms: O_8  and  C_53 
REMARK    4  A    between atoms: O_12  and  C_56 
REMARK    5  A    between atoms: O_13  and  C_57 
REMARK    6  A    between atoms: O_14  and  C_59 
REMARK    7  A    between atoms: C_52  and  C_55 
REMARK    8  A    between atoms: C_58  and  C_60 
ROOT
HETATM    1  O   MOL     1     -50.047  -1.566  14.240  1.00  0.00     0.000 OA
ENDROOT
BRANCH   1   2
HETATM    2  C   MOL     1     -49.284  -1.402  14.868  1.00  0.00     0.007 C 
HETATM    3  C   MOL     1     -48.378  -1.997  14.789  1.00  0.00    -0.058 C 
HETATM    4  C   MOL     1     -47.344  -1.478  15.085  1.00  0.00    -0.007 C 
HETATM    5  C   MOL     1     -47.882  -2.774  14.401  1.00  0.00     0.027 C 
HETATM    6  C   MOL     1     -48.804  -2.559  14.079  1.00  0.00    -0.005 C 
HETATM    7  C   MOL     1     -47.587  -1.004  16.135  1.00  0.00    -0.037 A 
HETATM    8  C   MOL     1     -46.685  -2.377  15.394  1.00  0.00     0.006 C 
HETATM    9  C   MOL     1     -46.554  -0.484  16.361  1.00  0.00     0.013 A 
HETATM   10  C   MOL     1     -48.443  -0.337  16.162  1.00  0.00     0.014 C 
HETATM   11  C   MOL     1     -47.983  -0.801  17.441  1.00  0.00     0.081 C 
HETATM   12  C   MOL     1     -46.784  -0.011  17.348  1.00  0.00    -0.024 A 
HETATM   13  C   MOL     1     -45.950  -1.388  16.708  1.00  0.00    -0.033 A 
HETATM   14  C   MOL     1     -45.131  -1.131  17.232  1.00  0.00    -0.030 A 
HETATM   15  C   MOL     1     -45.877  -2.165  16.017  1.00  0.00     0.011 C 
HETATM   16  C   MOL     1     -45.695  -2.686  17.096  1.00  0.00     0.044 C 
HETATM   17  C   MOL     1     -45.188  -0.389  17.902  1.00  0.00    -0.018 A 
HETATM   18  C   MOL     1     -44.576  -0.470  18.878  1.00  0.00    -0.002 C 
HETATM   19  C   MOL     1     -46.004   0.186  17.942  1.00  0.00    -0.036 C 
HETATM   20  C   MOL     1     -44.306  -1.769  17.214  1.00  0.00     0.041 A 
HETATM   21  C   MOL     1     -43.548  -0.796  18.526  1.00  0.00    -0.059 C 
HETATM   22  C   MOL     1     -44.447   0.671  19.207  1.00  0.00     0.003 C 
HETATM   23  C   MOL     1     -43.490  -1.570  17.829  1.00  0.00     0.009 C 
HETATM   24  C   MOL     1     -42.679  -0.559  19.132  1.00  0.00     0.014 C 
HETATM   25  C   MOL     1     -43.094  -1.934  19.160  1.00  0.00     0.028 C 
HETATM   26  C   MOL     1     -42.719   0.279  19.821  1.00  0.00     0.253 A 
HETATM   27  C   MOL     1     -43.590   0.927  19.823  1.00  0.00     0.003 A 
HETATM   28  O   MOL     1     -42.269   1.254  20.896  1.00  0.00    -0.382 OA
HETATM   29  C   MOL     1     -43.726   2.270  19.538  1.00  0.00     0.044 C 
HETATM   30  C   MOL     1     -43.190   1.463  20.568  1.00  0.00     0.080 A 
HETATM   31  O   MOL     1     -43.692   2.239  20.951  1.00  0.00     0.000 OA
HETATM   32  C   MOL     1     -44.415  -1.364  16.076  1.00  0.00     0.025 C 
HETATM   33  C   MOL     1     -49.297  -0.537  15.523  1.00  0.00    -0.012 C 
HETATM   34  O   MOL     1     -47.602   0.565  17.388  1.00  0.00     0.000 OA
ENDBRANCH   1   2
BRANCH   1  35
HETATM   35  C   MOL     1     -50.935  -1.139  14.407  1.00  0.00    -0.027 A 
HETATM   36  O   MOL     1     -51.089  -0.187  14.135  1.00  0.00     0.000 OA
HETATM   37  C   MOL     1     -51.939   0.277  14.387  1.00  0.00     0.096 A 
HETATM   38  C   MOL     1     -52.676  -0.246  14.827  1.00  0.00     0.133 A 
HETATM   39  C   MOL     1     -52.465  -1.143  15.227  1.00  0.00     0.055 A 
HETATM   40  O   MOL     1     -52.794  -1.290  16.558  1.00  0.00     0.000 OA
HETATM   41  C   MOL     1     -51.633  -1.626  14.932  1.00  0.00     0.007 A 
HETATM   42  H   MOL     1     -53.721  -1.372  15.839  1.00  0.00     0.000 HD
HETATM   43  O   MOL     1     -53.010  -2.582  16.024  1.00  0.00     0.000 OA
HETATM   44  C   MOL     1     -52.120  -3.011  15.857  1.00  0.00     0.057 A 
HETATM   45  C   MOL     1     -53.688  -3.052  16.591  1.00  0.00     0.071 C 
HETATM   46  O   MOL     1     -51.442  -2.541  15.289  1.00  0.00     0.000 OA
HETATM   47  C   MOL     1     -51.987  -3.980  16.087  1.00  0.00     0.154 A 
HETATM   48  C   MOL     1     -52.646  -4.431  16.697  1.00  0.00     0.211 A 
HETATM   49  C   MOL     1     -53.555  -4.021  16.822  1.00  0.00     0.146 C 
BRANCH  37  50
HETATM   50  C   MOL     1     -51.742   1.551  14.878  1.00  0.00     0.297 C 
HETATM   51  O   MOL     1     -52.785   1.722  13.939  1.00  0.00    -0.188 OA
HETATM   52  O   MOL     1     -51.088   1.580  13.625  1.00  0.00    -0.188 OA
ENDBRANCH  37  50
BRANCH  38  53
HETATM   53  O   MOL     1     -53.915  -0.140  14.230  1.00  0.00    -0.395 OA
HETATM   54  H   MOL     1     -53.805   0.528  15.192  1.00  0.00     0.210 HD
ENDBRANCH  38  53
BRANCH  47  55
HETATM   55  O   MOL     1     -51.486  -4.766  15.071  1.00  0.00    -0.393 OA
HETATM   56  H   MOL     1     -52.563  -5.088  15.418  1.00  0.00     0.210 HD
ENDBRANCH  47  55
BRANCH  48  57
HETATM   57  O   MOL     1     -52.105  -5.024  17.818  1.00  0.00    -0.392 OA
HETATM   58  H   MOL     1     -51.927  -3.862  17.776  1.00  0.00     0.210 HD
ENDBRANCH  48  57
BRANCH  49  59
HETATM   59  O   MOL     1     -54.622  -4.848  16.540  1.00  0.00    -0.399 OA
HETATM   60  H   MOL     1     -53.706  -5.417  17.009  1.00  0.00     0.209 HD
ENDBRANCH  49  59
BRANCH  45  61
HETATM   61  C   MOL     1     -54.190  -2.265  17.608  1.00  0.00     0.292 C 
HETATM   62  O   MOL     1     -54.854  -3.499  17.794  1.00  0.00    -0.188 OA
HETATM   63  O   MOL     1     -55.228  -2.256  16.647  1.00  0.00    -0.188 OA
ENDBRANCH  45  61
ENDBRANCH   1  35
TORSDOF 8
ENDMDL
MODEL 9
REMARK VINA RESULT:      -9.5     19.221     22.901
REMARK  8 active torsions:
REMARK  status: ('A' for Active; 'I' for Inactive)
REMARK    1  A    between atoms: O_1  and  C_33 
REMARK    2  A    between atoms: O_1  and  C_49 
REMARK    3  A    between atoms: O_8  and  C_53 
REMARK    4  A    between atoms: O_12  and  C_56 
REMARK    5  A    between atoms: O_13  and  C_57 
REMARK    6  A    between atoms: O_14  and  C_59 
REMARK    7  A    between atoms: C_52  and  C_55 
REMARK    8  A    between atoms: C_58  and  C_60 
ROOT
HETATM    1  O   MOL     1     -55.893   4.306   0.648  1.00  0.00     0.000 OA
ENDROOT
BRANCH   1   2
HETATM    2  C   MOL     1     -56.283   3.534   1.152  1.00  0.00     0.007 C 
HETATM    3  C   MOL     1     -56.749   2.714   0.613  1.00  0.00    -0.058 C 
HETATM    4  C   MOL     1     -56.683   1.622   1.094  1.00  0.00    -0.007 C 
HETATM    5  C   MOL     1     -57.093   2.321  -0.240  1.00  0.00     0.027 C 
HETATM    6  C   MOL     1     -56.624   3.204  -0.250  1.00  0.00    -0.005 C 
HETATM    7  C   MOL     1     -57.038   1.810   2.202  1.00  0.00    -0.037 A 
HETATM    8  C   MOL     1     -57.610   1.090   0.652  1.00  0.00     0.006 C 
HETATM    9  C   MOL     1     -56.923   0.719   2.632  1.00  0.00     0.013 A 
HETATM   10  C   MOL     1     -56.488   2.570   2.747  1.00  0.00     0.014 C 
HETATM   11  C   MOL     1     -57.747   2.186   3.323  1.00  0.00     0.081 C 
HETATM   12  C   MOL     1     -57.235   0.892   3.692  1.00  0.00    -0.024 A 
HETATM   13  C   MOL     1     -57.873   0.242   2.218  1.00  0.00    -0.033 A 
HETATM   14  C   MOL     1     -58.130  -0.599   2.705  1.00  0.00    -0.030 A 
HETATM   15  C   MOL     1     -57.966   0.266   1.181  1.00  0.00     0.011 C 
HETATM   16  C   MOL     1     -59.101   0.163   1.595  1.00  0.00     0.044 C 
HETATM   17  C   MOL     1     -58.050  -0.636   3.702  1.00  0.00    -0.018 A 
HETATM   18  C   MOL     1     -58.840  -1.223   4.306  1.00  0.00    -0.002 C 
HETATM   19  C   MOL     1     -57.580   0.098   4.193  1.00  0.00    -0.036 C 
HETATM   20  C   MOL     1     -58.661  -1.333   2.188  1.00  0.00     0.041 A 
HETATM   21  C   MOL     1     -58.937  -2.202   3.741  1.00  0.00    -0.059 C 
HETATM   22  C   MOL     1     -58.256  -1.499   5.311  1.00  0.00     0.003 C 
HETATM   23  C   MOL     1     -59.023  -2.163   2.702  1.00  0.00     0.009 C 
HETATM   24  C   MOL     1     -59.271  -3.091   4.270  1.00  0.00     0.014 C 
HETATM   25  C   MOL     1     -60.238  -2.497   3.389  1.00  0.00     0.028 C 
HETATM   26  C   MOL     1     -59.136  -3.155   5.345  1.00  0.00     0.253 A 
HETATM   27  C   MOL     1     -58.581  -2.377   5.862  1.00  0.00     0.003 A 
HETATM   28  O   MOL     1     -59.216  -3.722   6.752  1.00  0.00    -0.382 OA
HETATM   29  C   MOL     1     -57.404  -2.422   6.580  1.00  0.00     0.044 C 
HETATM   30  C   MOL     1     -58.747  -2.838   6.734  1.00  0.00     0.080 A 
HETATM   31  O   MOL     1     -58.400  -2.440   7.584  1.00  0.00     0.000 OA
HETATM   32  C   MOL     1     -57.578  -1.288   1.645  1.00  0.00     0.025 C 
HETATM   33  C   MOL     1     -56.108   3.438   2.219  1.00  0.00    -0.012 C 
HETATM   34  O   MOL     1     -56.765   1.628   4.183  1.00  0.00     0.000 OA
ENDBRANCH   1   2
BRANCH   1  35
HETATM   35  C   MOL     1     -56.067   5.243   0.952  1.00  0.00    -0.027 A 
HETATM   36  O   MOL     1     -57.008   5.583   1.001  1.00  0.00     0.000 OA
HETATM   37  C   MOL     1     -57.184   6.547   1.208  1.00  0.00     0.096 A 
HETATM   38  C   MOL     1     -56.418   7.145   1.464  1.00  0.00     0.133 A 
HETATM   39  C   MOL     1     -55.479   6.845   1.270  1.00  0.00     0.055 A 
HETATM   40  O   MOL     1     -54.724   7.714   0.511  1.00  0.00     0.000 OA
HETATM   41  C   MOL     1     -55.302   5.867   1.111  1.00  0.00     0.007 A 
HETATM   42  H   MOL     1     -54.822   8.045   1.636  1.00  0.00     0.000 HD
HETATM   43  O   MOL     1     -53.773   7.129   1.380  1.00  0.00     0.000 OA
HETATM   44  C   MOL     1     -53.598   6.191   1.076  1.00  0.00     0.057 A 
HETATM   45  C   MOL     1     -53.008   7.766   1.491  1.00  0.00     0.071 C 
HETATM   46  O   MOL     1     -54.363   5.555   0.966  1.00  0.00     0.000 OA
HETATM   47  C   MOL     1     -52.657   5.839   1.076  1.00  0.00     0.154 A 
HETATM   48  C   MOL     1     -51.893   6.489   1.138  1.00  0.00     0.211 A 
HETATM   49  C   MOL     1     -52.067   7.414   1.490  1.00  0.00     0.146 C 
BRANCH  37  50
HETATM   50  C   MOL     1     -58.134   7.118   0.388  1.00  0.00     0.297 C 
HETATM   51  O   MOL     1     -58.656   7.328   1.685  1.00  0.00    -0.188 OA
HETATM   52  O   MOL     1     -58.712   5.877   0.741  1.00  0.00    -0.188 OA
ENDBRANCH  37  50
BRANCH  38  53
HETATM   53  O   MOL     1     -56.584   7.851   2.637  1.00  0.00    -0.395 OA
HETATM   54  H   MOL     1     -57.503   7.164   2.375  1.00  0.00     0.210 HD
ENDBRANCH  38  53
BRANCH  47  55
HETATM   55  O   MOL     1     -52.472   4.643   1.737  1.00  0.00    -0.393 OA
HETATM   56  H   MOL     1     -53.157   5.398   2.326  1.00  0.00     0.210 HD
ENDBRANCH  47  55
BRANCH  48  57
HETATM   57  O   MOL     1     -50.962   6.408   0.123  1.00  0.00    -0.392 OA
HETATM   58  H   MOL     1     -51.761   7.255  -0.047  1.00  0.00     0.210 HD
ENDBRANCH  48  57
BRANCH  49  59
HETATM   59  O   MOL     1     -51.293   7.793   2.567  1.00  0.00    -0.399 OA
HETATM   60  H   MOL     1     -51.684   6.686   2.644  1.00  0.00     0.209 HD
ENDBRANCH  49  59
BRANCH  45  61
HETATM   61  C   MOL     1     -53.194   8.963   0.829  1.00  0.00     0.292 C 
HETATM   62  O   MOL     1     -51.904   9.098   1.393  1.00  0.00    -0.188 OA
HETATM   63  O   MOL     1     -53.433   9.298   2.182  1.00  0.00    -0.188 OA
ENDBRANCH  45  61
ENDBRANCH   1  35
TORSDOF 8
ENDMDL
MODEL 10
REMARK VINA RESULT:      -9.1      2.971      5.526
REMARK  8 active torsions:
REMARK  status: ('A' for Active; 'I' for Inactive)
REMARK    1  A    between atoms: O_1  and  C_33 
REMARK    2  A    between atoms: O_1  and  C_49 
REMARK    3  A    between atoms: O_8  and  C_53 
REMARK    4  A    between atoms: O_12  and  C_56 
REMARK    5  A    between atoms: O_13  and  C_57 
REMARK    6  A    between atoms: O_14  and  C_59 
REMARK    7  A    between atoms: C_52  and  C_55 
REMARK    8  A    between atoms: C_58  and  C_60 
ROOT
HETATM    1  O   MOL     1     -47.357  -2.458  15.592  1.00  0.00     0.000 OA
ENDROOT
BRANCH   1   2
HETATM    2  C   MOL     1     -46.959  -1.908  16.327  1.00  0.00     0.007 C 
HETATM    3  C   MOL     1     -45.919  -1.599  16.272  1.00  0.00    -0.058 C 
HETATM    4  C   MOL     1     -45.621  -0.555  16.771  1.00  0.00    -0.007 C 
HETATM    5  C   MOL     1     -45.021  -1.651  15.836  1.00  0.00     0.027 C 
HETATM    6  C   MOL     1     -45.799  -2.137  15.438  1.00  0.00    -0.005 C 
HETATM    7  C   MOL     1     -46.103  -0.636  17.842  1.00  0.00    -0.037 A 
HETATM    8  C   MOL     1     -44.502  -0.699  17.019  1.00  0.00     0.006 C 
HETATM    9  C   MOL     1     -45.809   0.421  18.271  1.00  0.00     0.013 A 
HETATM   10  C   MOL     1     -47.167  -0.851  17.863  1.00  0.00     0.014 C 
HETATM   11  C   MOL     1     -46.472  -1.054  19.104  1.00  0.00     0.081 C 
HETATM   12  C   MOL     1     -46.284   0.362  19.282  1.00  0.00    -0.024 A 
HETATM   13  C   MOL     1     -44.720   0.226  18.549  1.00  0.00    -0.033 A 
HETATM   14  C   MOL     1     -44.359   0.897  19.204  1.00  0.00    -0.030 A 
HETATM   15  C   MOL     1     -44.110  -0.083  17.763  1.00  0.00     0.011 C 
HETATM   16  C   MOL     1     -43.561  -0.490  18.764  1.00  0.00     0.044 C 
HETATM   17  C   MOL     1     -44.933   1.200  19.967  1.00  0.00    -0.018 A 
HETATM   18  C   MOL     1     -44.437   1.414  20.988  1.00  0.00    -0.002 C 
HETATM   19  C   MOL     1     -45.901   0.953  19.992  1.00  0.00    -0.036 C 
HETATM   20  C   MOL     1     -43.337   1.107  19.192  1.00  0.00     0.041 A 
HETATM   21  C   MOL     1     -43.528   2.039  20.721  1.00  0.00    -0.059 C 
HETATM   22  C   MOL     1     -45.202   2.176  21.500  1.00  0.00     0.003 C 
HETATM   23  C   MOL     1     -42.931   1.722  19.928  1.00  0.00     0.009 C 
HETATM   24  C   MOL     1     -43.116   2.720  21.460  1.00  0.00     0.014 C 
HETATM   25  C   MOL     1     -42.352   1.526  21.226  1.00  0.00     0.028 C 
HETATM   26  C   MOL     1     -43.751   3.092  22.258  1.00  0.00     0.253 A 
HETATM   27  C   MOL     1     -44.812   2.858  22.250  1.00  0.00     0.003 A 
HETATM   28  O   MOL     1     -44.155   3.843  23.516  1.00  0.00    -0.382 OA
HETATM   29  C   MOL     1     -45.922   3.671  22.158  1.00  0.00     0.044 C 
HETATM   30  C   MOL     1     -44.928   3.354  23.112  1.00  0.00     0.080 A 
HETATM   31  O   MOL     1     -45.829   3.402  23.543  1.00  0.00     0.000 OA
HETATM   32  C   MOL     1     -43.752   1.505  18.125  1.00  0.00     0.025 C 
HETATM   33  C   MOL     1     -47.598  -1.491  17.100  1.00  0.00    -0.012 C 
HETATM   34  O   MOL     1     -47.254   0.114  19.307  1.00  0.00     0.000 OA
ENDBRANCH   1   2
BRANCH   1  35
HETATM   35  C   MOL     1     -48.278  -2.257  15.257  1.00  0.00    -0.027 A 
HETATM   36  O   MOL     1     -48.437  -1.443  14.695  1.00  0.00     0.000 OA
HETATM   37  C   MOL     1     -49.369  -1.182  14.440  1.00  0.00     0.096 A 
HETATM   38  C   MOL     1     -50.133  -1.795  14.665  1.00  0.00     0.133 A 
HETATM   39  C   MOL     1     -49.991  -2.521  15.346  1.00  0.00     0.055 A 
HETATM   40  O   MOL     1     -50.868  -2.513  16.411  1.00  0.00     0.000 OA
HETATM   41  C   MOL     1     -49.053  -2.811  15.562  1.00  0.00     0.007 A 
HETATM   42  H   MOL     1     -51.335  -2.962  15.429  1.00  0.00     0.000 HD
HETATM   43  O   MOL     1     -50.607  -3.889  16.213  1.00  0.00     0.000 OA
HETATM   44  C   MOL     1     -49.686  -4.091  16.548  1.00  0.00     0.057 A 
HETATM   45  C   MOL     1     -51.387  -4.414  16.558  1.00  0.00     0.071 C 
HETATM   46  O   MOL     1     -48.906  -3.566  16.202  1.00  0.00     0.000 OA
HETATM   47  C   MOL     1     -49.523  -4.934  17.069  1.00  0.00     0.154 A 
HETATM   48  C   MOL     1     -50.308  -5.429  17.455  1.00  0.00     0.211 A 
HETATM   49  C   MOL     1     -51.224  -5.257  17.079  1.00  0.00     0.146 C 
BRANCH  37  50
HETATM   50  C   MOL     1     -49.624   0.164  14.598  1.00  0.00     0.297 C 
HETATM   51  O   MOL     1     -50.126  -0.113  13.306  1.00  0.00    -0.188 OA
HETATM   52  O   MOL     1     -48.478   0.144  13.770  1.00  0.00    -0.188 OA
ENDBRANCH  37  50
BRANCH  38  53
HETATM   53  O   MOL     1     -50.958  -2.126  13.610  1.00  0.00    -0.395 OA
HETATM   54  H   MOL     1     -50.400  -3.054  14.072  1.00  0.00     0.210 HD
ENDBRANCH  38  53
BRANCH  47  55
HETATM   55  O   MOL     1     -48.493  -5.727  16.605  1.00  0.00    -0.393 OA
HETATM   56  H   MOL     1     -49.015  -5.100  15.757  1.00  0.00     0.210 HD
ENDBRANCH  47  55
BRANCH  48  57
HETATM   57  O   MOL     1     -50.258  -5.652  18.815  1.00  0.00    -0.392 OA
HETATM   58  H   MOL     1     -51.102  -6.268  18.275  1.00  0.00     0.210 HD
ENDBRANCH  48  57
BRANCH  49  59
HETATM   59  O   MOL     1     -51.897  -6.373  16.625  1.00  0.00    -0.399 OA
HETATM   60  H   MOL     1     -52.003  -6.207  17.785  1.00  0.00     0.209 HD
ENDBRANCH  49  59
BRANCH  45  61
HETATM   61  C   MOL     1     -52.417  -3.621  17.022  1.00  0.00     0.292 C 
HETATM   62  O   MOL     1     -52.890  -4.934  17.248  1.00  0.00    -0.188 OA
HETATM   63  O   MOL     1     -52.882  -4.052  15.758  1.00  0.00    -0.188 OA
ENDBRANCH  45  61
ENDBRANCH   1  35
TORSDOF 8
ENDMDL
