Site1_Forsythoside_D
  xed2sdf_05210316543D
 
 62 64  0  0  1  0  0  0  0  0999 V2000
   13.3360    3.2169   18.9709 O   0  0  0  0  0  0  0  0  0  0  0  0
   11.6320    0.9699   18.9099 O   0  0  0  0  0  0  0  0  0  0  0  0
   10.5610   -1.0981   19.5039 O   0  0  0  0  0  0  0  0  0  0  0  0
   10.8480    3.0319   21.7299 O   0  0  0  0  0  0  0  0  0  0  0  0
   14.2970    5.0749   17.8129 O   0  0  0  0  0  0  0  0  0  0  0  0
   10.4520    5.7039   20.7279 O   0  0  0  0  0  0  0  0  0  0  0  0
   12.7190    6.8549   19.3529 O   0  0  0  0  0  0  0  0  0  0  0  0
    8.0400    0.1739   18.6549 O   0  0  0  0  0  0  0  0  0  0  0  0
    8.6780   -0.0461   15.9149 O   0  0  0  0  0  0  0  0  0  0  0  0
   10.3320   -2.3811   16.0189 O   0  0  0  0  0  0  0  0  0  0  0  0
   12.6410    8.8119   14.4419 O   0  0  0  0  0  0  0  0  0  0  0  0
   13.8570    7.5699   12.3079 O   0  0  0  0  0  0  0  0  0  0  0  0
   12.7370    2.7339   20.1899 C   0  0  0  0  0  0  0  0  0  0  0  0
   11.4180    3.4779   20.4899 C   0  0  0  0  0  0  0  0  0  0  0  0
   11.6860    4.9929   20.5469 C   0  0  0  0  0  0  0  0  0  0  0  0
   12.3820    5.4639   19.2559 C   0  0  0  0  0  0  0  0  0  0  0  0
    9.3370    0.5729   18.1859 C   0  0  0  0  0  0  0  0  0  0  0  0
   10.4000    0.3199   19.2729 C   0  0  0  0  0  0  0  0  0  0  0  0
    9.7060   -0.2011   16.9039 C   0  0  0  0  0  0  0  0  0  0  0  0
    9.9290   -1.6941   17.2139 C   0  0  0  0  0  0  0  0  0  0  0  0
   13.6530    4.6259   19.0189 C   0  0  0  0  0  0  0  0  0  0  0  0
   12.4680    1.2269   20.0509 C   0  0  0  0  0  0  0  0  0  0  0  0
   10.9920   -1.8111   18.3259 C   0  0  0  0  0  0  0  0  0  0  0  0
   11.2420   -3.2861   18.6819 C   0  0  0  0  0  0  0  0  0  0  0  0
   15.6590    5.4669   18.0479 C   0  0  0  0  0  0  0  0  0  0  0  0
   15.9190    6.8869   17.5169 C   0  0  0  0  0  0  0  0  0  0  0  0
   15.3690    7.0869   16.1159 C   0  0  0  0  0  0  0  0  0  0  0  0
   14.2540    7.8729   15.9109 C   0  0  0  0  0  0  0  0  0  0  0  0
   15.9780    6.4729   15.0429 C   0  0  0  0  0  0  0  0  0  0  0  0
   13.7460    8.0389   14.6419 C   0  0  0  0  0  0  0  0  0  0  0  0
   15.4750    6.6359   13.7709 C   0  0  0  0  0  0  0  0  0  0  0  0
   14.3580    7.4149   13.5659 C   0  0  0  0  0  0  0  0  0  0  0  0
   13.3660    2.9019   20.9489 H   0  0  0  0  0  0  0  0  0  0  0  0
   10.7650    3.2789   19.7589 H   0  0  0  0  0  0  0  0  0  0  0  0
   12.2870    5.1829   21.3229 H   0  0  0  0  0  0  0  0  0  0  0  0
   11.7580    5.3399   18.4849 H   0  0  0  0  0  0  0  0  0  0  0  0
    9.3100    1.5499   17.9769 H   0  0  0  0  0  0  0  0  0  0  0  0
   10.0990    0.7159   20.1399 H   0  0  0  0  0  0  0  0  0  0  0  0
   10.5590    0.1769   16.5429 H   0  0  0  0  0  0  0  0  0  0  0  0
    9.0820   -2.1191   17.5339 H   0  0  0  0  0  0  0  0  0  0  0  0
   14.2870    4.7529   19.7819 H   0  0  0  0  0  0  0  0  0  0  0  0
   11.8440   -1.4101   17.9899 H   0  0  0  0  0  0  0  0  0  0  0  0
    9.8820    2.7759   21.6179 H   0  0  0  0  0  0  0  0  0  0  0  0
   10.6170    6.6639   20.9789 H   0  0  0  0  0  0  0  0  0  0  0  0
   12.8150    7.2719   18.4429 H   0  0  0  0  0  0  0  0  0  0  0  0
    7.7620    0.7099   19.4589 H   0  0  0  0  0  0  0  0  0  0  0  0
    8.5950    0.9129   15.6209 H   0  0  0  0  0  0  0  0  0  0  0  0
    9.8060   -3.2271   15.8859 H   0  0  0  0  0  0  0  0  0  0  0  0
   11.8020    8.2569   14.4219 H   0  0  0  0  0  0  0  0  0  0  0  0
   14.2390    8.3849   11.8589 H   0  0  0  0  0  0  0  0  0  0  0  0
   13.3370    0.7429   19.9399 H   0  0  0  0  0  0  0  0  0  0  0  0
   12.0010    0.9049   20.8739 H   0  0  0  0  0  0  0  0  0  0  0  0
   10.6570   -3.8621   18.1099 H   0  0  0  0  0  0  0  0  0  0  0  0
   12.2020   -3.5151   18.5179 H   0  0  0  0  0  0  0  0  0  0  0  0
   11.0300   -3.4401   19.6459 H   0  0  0  0  0  0  0  0  0  0  0  0
   16.2710    4.8249   17.5869 H   0  0  0  0  0  0  0  0  0  0  0  0
   15.8290    5.4599   19.0339 H   0  0  0  0  0  0  0  0  0  0  0  0
   16.9060    7.0519   17.5039 H   0  0  0  0  0  0  0  0  0  0  0  0
   15.4520    7.5309   18.1219 H   0  0  0  0  0  0  0  0  0  0  0  0
   13.8130    8.3229   16.6879 H   0  0  0  0  0  0  0  0  0  0  0  0
   16.7890    5.9069   15.1889 H   0  0  0  0  0  0  0  0  0  0  0  0
   15.9210    6.1879   12.9959 H   0  0  0  0  0  0  0  0  0  0  0  0
  1 13  1  0
  1 21  1  0
  2 22  1  0
  3 18  1  0
  3 23  1  0
  5 25  1  0
 11 30  1  0
 12 32  1  0
 13 14  1  0
 13 22  1  0
 14  4  1  0
 14 15  1  0
 15  6  1  0
 15 16  1  0
 16  7  1  0
 16 21  1  0
 17  8  1  0
 17 18  1  0
 17 19  1  0
 18  2  1  0
 19  9  1  0
 19 20  1  0
 20 10  1  0
 20 23  1  0
 21  5  1  0
 23 24  1  0
 25 26  1  0
 26 27  1  0
 27 28  2  0
 27 29  1  0
 28 30  1  0
 29 31  2  0
 30 32  2  0
 31 32  1  0
  4 43  1  0
  6 44  1  0
  7 45  1  0
  8 46  1  0
  9 47  1  0
 10 48  1  0
 11 49  1  0
 12 50  1  0
 13 33  1  0
 14 34  1  0
 15 35  1  0
 16 36  1  0
 17 37  1  0
 18 38  1  0
 19 39  1  0
 20 40  1  0
 21 41  1  0
 22 51  1  0
 22 52  1  0
 23 42  1  0
 24 53  1  0
 24 54  1  0
 24 55  1  0
 25 56  1  0
 25 57  1  0
 26 58  1  0
 26 59  1  0
 28 60  1  0
 29 61  1  0
 31 62  1  0
M  END
>  <BioMolTech Lead Finder dG>
-6.261

>  <BioMolTech Lead Finder VSscore>
-12.77

>  <BioMolTech Lead Finder Rank score>
-9.594

>  <BioMolTech Lead Finder LE>
-0.196

>  <BioMolTech Lead Finder Structure Name>
C:\Users\c0ins\AppData\Local\Temp\LeadFinder_11612_1\Ligand_1.sdf

>  <BioMolTech Lead Finder SDF id>
0

>  <BioMolTech Lead Finder Pose rank>
0

>  <BioMolTech Lead Finder version>
2001 1, 19 January 2019

>  <PUBCHEM_COMPOUND_CID>
69634125

>  <PUBCHEM_COMPOUND_CANONICALIZED>
1

>  <PUBCHEM_CACTVS_COMPLEXITY>
581

>  <PUBCHEM_CACTVS_HBOND_ACCEPTOR>
12

>  <PUBCHEM_CACTVS_HBOND_DONOR>
8

>  <PUBCHEM_CACTVS_ROTATABLE_BOND>
7

>  <PUBCHEM_CACTVS_SUBSKEYS>
AAADceB4PAAAAAAAAAAAAAAAAAAAAAAAAAA0SIAAAAAAAAABAAAAGgAACAAADBSwmAMyDoAABgCAAiBCAAACAAAgIAAIiAAGiIgZNiKCERKicAElwBEPmAfA4LwOIAABAAAAQABAAAIAAACAAAAAAAAAAA==

>  <PUBCHEM_IUPAC_OPENEYE_NAME>
(2R,3R,4R,5R,6S)-2-[[(2R,3S,4S,5R,6R)-6-[2-(3,4-dihydroxyphenyl)ethoxy]-3,4,5-trihydroxy-tetrahydropyran-2-yl]methoxy]-6-methyl-tetrahydropyran-3,4,5-triol

>  <PUBCHEM_IUPAC_CAS_NAME>
(2R,3R,4R,5R,6S)-2-[[(2R,3S,4S,5R,6R)-6-[2-(3,4-dihydroxyphenyl)ethoxy]-3,4,5-trihydroxy-2-oxanyl]methoxy]-6-methyloxane-3,4,5-triol

>  <PUBCHEM_IUPAC_NAME_MARKUP>
(2<I>R</I>,3<I>R</I>,4<I>R</I>,5<I>R</I>,6<I>S</I>)-2-[[(2<I>R</I>,3<I>S</I>,4<I>S</I>,5<I>R</I>,6<I>R</I>)-6-[2-(3,4-dihydroxyphenyl)ethoxy]-3,4,5-trihydroxyoxan-2-yl]methoxy]-6-methyloxane-3,4,5-tri

>  <PUBCHEM_IUPAC_NAME>
(2R,3R,4R,5R,6S)-2-[[(2R,3S,4S,5R,6R)-6-[2-(3,4-dihydroxyphenyl)ethoxy]-3,4,5-trihydroxyoxan-2-yl]methoxy]-6-methyloxane-3,4,5-triol

>  <PUBCHEM_IUPAC_SYSTEMATIC_NAME>
(2R,3R,4R,5R,6S)-2-[[(2R,3S,4S,5R,6R)-6-[2-[3,4-bis(oxidanyl)phenyl]ethoxy]-3,4,5-tris(oxidanyl)oxan-2-yl]methoxy]-6-methyl-oxane-3,4,5-triol

>  <PUBCHEM_IUPAC_TRADITIONAL_NAME>
(2R,3R,4R,5R,6S)-2-[[(2R,3S,4S,5R,6R)-6-[2-(3,4-dihydroxyphenyl)ethoxy]-3,4,5-trihydroxy-tetrahydropyran-2-yl]methoxy]-6-methyl-tetrahydropyran-3,4,5-triol

>  <PUBCHEM_IUPAC_INCHI>
InChI=1S/C20H30O12/c1-8-13(23)15(25)17(27)20(31-8)30-7-12-14(24)16(26)18(28)19(32-12)29-5-4-9-2-3-10(21)11(22)6-9/h2-3,6,8,12-28H,4-5,7H2,1H3/t8-,12+,13-,14+,15+,16-,17+,18+,19+,20+/m0/s1

>  <PUBCHEM_IUPAC_INCHIKEY>
QIMGUQIHCNDUKU-OJJLXHDHSA-N

>  <PUBCHEM_XLOGP3_AA>
-2.5

>  <PUBCHEM_EXACT_MASS>
462.173726

>  <PUBCHEM_MOLECULAR_FORMULA>
C20H30O12

>  <PUBCHEM_MOLECULAR_WEIGHT>
462.4

>  <PUBCHEM_OPENEYE_CAN_SMILES>
CC1C(C(C(C(O1)OCC2C(C(C(C(O2)OCCC3=CC(=C(C=C3)O)O)O)O)O)O)O)O

>  <PUBCHEM_OPENEYE_ISO_SMILES>
C[C@H]1[C@@H]([C@H]([C@H]([C@@H](O1)OC[C@@H]2[C@H]([C@@H]([C@H]([C@@H](O2)OCCC3=CC(=C(C=C3)O)O)O)O)O)O)O)O

>  <PUBCHEM_CACTVS_TPSA>
199

>  <PUBCHEM_MONOISOTOPIC_WEIGHT>
462.173726

>  <PUBCHEM_TOTAL_CHARGE>
0

>  <PUBCHEM_HEAVY_ATOM_COUNT>
32

>  <PUBCHEM_ATOM_DEF_STEREO_COUNT>
10

>  <PUBCHEM_ATOM_UDEF_STEREO_COUNT>
0

>  <PUBCHEM_BOND_DEF_STEREO_COUNT>
0

>  <PUBCHEM_BOND_UDEF_STEREO_COUNT>
0

>  <PUBCHEM_ISOTOPIC_ATOM_COUNT>
0

>  <PUBCHEM_COMPONENT_COUNT>
1

>  <PUBCHEM_CACTVS_TAUTO_COUNT>
-1

>  <PUBCHEM_COORDINATE_TYPE>
1
5
255

>  <PUBCHEM_BONDANNOTATIONS>
20  10  5
13  22  5
18  2  5
23  24  6
27  28  8
27  29  8
28  30  8
29  31  8
30  32  8
31  32  8
14  4  6
21  5  5
15  6  5
16  7  6
17  8  6
19  9  6

>  <LF dG>
-6.261

>  <LF VSscore>
-12.77

>  <LF Rank Score>
-9.594

>  <LF LE>
-0.196

>  <Preferred Pose_cresset>
true

>  <Favorite_cresset>
false

>  <Protein_cresset>
6Y2F_P | 6 A | No water

>  <MW_cresset>
462.4

>  <#Atoms_cresset>
32

>  <SlogP_cresset>
-0.4

>  <TPSA_cresset>
198.8

>  <Flexibility_cresset>
15.9

>  <#RB_cresset>
15

>  <Rof5_cresset>
2

>  <Filename_cresset>
Forsythoside E.sdf

>  <Confs_cresset>
0

>  <Poses_cresset>
10

>  <_cresset_fieldpoints>
    -5      12.654955       2.134892      17.545931    -14.0810
    -5       7.199687      -0.462908      17.057436    -19.1077
    -5      11.587955       3.450893      23.444931    -11.1065
    -5      13.776955       4.405892      16.095932    -12.4685
    -5       8.698955       5.342893      20.098930     -9.3170
    -5       9.914955       4.854893      22.357931     -9.9085
    -5      13.603954       7.693892      20.828932     -8.3645
    -5      12.906955      10.702892      14.310931     -7.6750
    -5       9.418821      -1.330495      14.704689    -17.2849
    -5      12.831955       6.107893      11.615931     -8.0505
    -5      16.467955       9.693892      14.847931     -3.0775
    -6       8.966954       2.753893      15.985931      9.0635
    -6       8.398478       2.087302      20.627247     18.4892
    -6      11.561954       7.692893      17.057932      9.8115
    -6      10.570954       8.348892      21.886932      6.6295
    -6      10.933954       7.477893      15.939931      8.5115
    -6       8.980955      -4.766108      16.562931      8.1120
    -6      15.207954       9.616893      10.857931      7.6115
    -6      14.838955       4.488893      21.817932      4.7095
    -6      18.418955       5.253892      16.553932      3.6490
    -6      17.665955       6.433892      20.031931      3.2615
    -7      11.740954      -1.638108      21.574932     -2.2200
    -7      10.327954       0.883893      22.753931     -1.9755
    -7       8.206955       2.929893      20.095932     -2.2660
    -7      12.223954       2.012893      23.371931     -1.8175
    -7      12.562955       3.273893      23.481932     -1.7825
    -7       9.296955       4.772892      22.693932     -1.5975
    -7      11.179955       7.210893      16.740931     -2.1925
    -7      13.803955       9.039892      19.238932     -2.1080
    -7      14.644955       7.341892      20.669931     -2.5690
    -7      10.587955       8.033893      19.057932     -1.6550
    -7       6.580955      -0.967108      17.071932     -1.7850
    -7      12.596954      -1.467108      15.428931     -1.7960
    -7       8.739954      -1.818107      14.199931     -1.5505
    -7      12.675955      -2.722108      15.664931     -1.7820
    -7       8.385955      -4.622108      17.110931     -1.4190
    -7      11.833955       9.042892      12.065931     -1.5195
    -7      16.856955       9.808892      14.665932     -1.8235
    -7      15.238955       6.821893      10.363932     -1.2545
    -7      14.673954       4.755893      22.274931     -1.9600
    -7       8.205955      -1.905107      20.092932     -2.5535
    -7      18.752954       5.296893      16.609932     -1.7355
    -7      11.625955       2.751893      17.151932     -3.8190
    -7      12.924954       4.747892      15.868931     -3.2550
    -8      12.379954       4.316893      20.048931      5.1505
    -8      10.719954      -2.614107      18.060932      4.4835
    -8      12.210955       2.310893      20.514931      3.9765
    -8      10.180955      -0.597108      17.769932      4.8035
    -8      14.904955       7.229893      14.880931      6.9210

$$$$
W_Site1_Forsythoside_D
  xed2sdf_05210316543D
 
 62 64  0  0  1  0  0  0  0  0999 V2000
   10.6864   -0.5663   23.4927 O   0  0  0  0  0  0  0  0  0  0  0  0
    9.4914   -2.9073   25.0987 O   0  0  0  0  0  0  0  0  0  0  0  0
   10.2184   -4.9863   26.0607 O   0  0  0  0  0  0  0  0  0  0  0  0
    8.3244   -0.2633   26.3507 O   0  0  0  0  0  0  0  0  0  0  0  0
   10.9684    0.7437   21.5127 O   0  0  0  0  0  0  0  0  0  0  0  0
    7.0444    1.3397   24.3277 O   0  0  0  0  0  0  0  0  0  0  0  0
    8.8054    2.3987   22.2957 O   0  0  0  0  0  0  0  0  0  0  0  0
    7.5034   -5.2063   27.1887 O   0  0  0  0  0  0  0  0  0  0  0  0
    6.3584   -5.8663   24.6957 O   0  0  0  0  0  0  0  0  0  0  0  0
    8.6184   -7.1373   23.4797 O   0  0  0  0  0  0  0  0  0  0  0  0
    9.7674    2.6497   16.8177 O   0  0  0  0  0  0  0  0  0  0  0  0
    8.6094    0.1937   16.3677 O   0  0  0  0  0  0  0  0  0  0  0  0
   10.2524   -0.5973   24.8667 C   0  0  0  0  0  0  0  0  0  0  0  0
    8.7454   -0.2833   24.9777 C   0  0  0  0  0  0  0  0  0  0  0  0
    8.4554    1.0787   24.3187 C   0  0  0  0  0  0  0  0  0  0  0  0
    8.9874    1.0987   22.8737 C   0  0  0  0  0  0  0  0  0  0  0  0
    7.8264   -4.4333   26.0237 C   0  0  0  0  0  0  0  0  0  0  0  0
    9.2704   -3.8983   26.1197 C   0  0  0  0  0  0  0  0  0  0  0  0
    7.6714   -5.2883   24.7497 C   0  0  0  0  0  0  0  0  0  0  0  0
    8.7434   -6.3943   24.7027 C   0  0  0  0  0  0  0  0  0  0  0  0
   10.4814    0.7197   22.8667 C   0  0  0  0  0  0  0  0  0  0  0  0
   10.5414   -1.9903   25.4507 C   0  0  0  0  0  0  0  0  0  0  0  0
   10.1334   -5.7353   24.8297 C   0  0  0  0  0  0  0  0  0  0  0  0
   11.2414   -6.8013   24.7997 C   0  0  0  0  0  0  0  0  0  0  0  0
   12.4044    0.7197   21.4607 C   0  0  0  0  0  0  0  0  0  0  0  0
   12.8974    0.6627   20.0047 C   0  0  0  0  0  0  0  0  0  0  0  0
   11.7544    0.5397   19.0137 C   0  0  0  0  0  0  0  0  0  0  0  0
   11.2834    1.6557   18.3527 C   0  0  0  0  0  0  0  0  0  0  0  0
   11.1754   -0.6873   18.7797 C   0  0  0  0  0  0  0  0  0  0  0  0
   10.2344    1.5457   17.4667 C   0  0  0  0  0  0  0  0  0  0  0  0
   10.1264   -0.8043   17.8947 C   0  0  0  0  0  0  0  0  0  0  0  0
    9.6514    0.3087   17.2377 C   0  0  0  0  0  0  0  0  0  0  0  0
   10.7524    0.1007   25.3807 H   0  0  0  0  0  0  0  0  0  0  0  0
    8.2334   -1.0003   24.5057 H   0  0  0  0  0  0  0  0  0  0  0  0
    8.9214    1.7927   24.8417 H   0  0  0  0  0  0  0  0  0  0  0  0
    8.4774    0.4327   22.3287 H   0  0  0  0  0  0  0  0  0  0  0  0
    7.1954   -3.6593   25.9727 H   0  0  0  0  0  0  0  0  0  0  0  0
    9.4064   -3.4503   27.0037 H   0  0  0  0  0  0  0  0  0  0  0  0
    7.7954   -4.6953   23.9547 H   0  0  0  0  0  0  0  0  0  0  0  0
    8.6234   -7.0363   25.4587 H   0  0  0  0  0  0  0  0  0  0  0  0
   11.0004    1.3867   23.4017 H   0  0  0  0  0  0  0  0  0  0  0  0
   10.2594   -5.1153   24.0557 H   0  0  0  0  0  0  0  0  0  0  0  0
    7.8024   -1.0903   26.5847 H   0  0  0  0  0  0  0  0  0  0  0  0
    6.6884    1.4547   23.3937 H   0  0  0  0  0  0  0  0  0  0  0  0
    7.9274    2.4627   21.8087 H   0  0  0  0  0  0  0  0  0  0  0  0
    7.4874   -6.1903   26.9807 H   0  0  0  0  0  0  0  0  0  0  0  0
    6.3254   -6.7453   25.1827 H   0  0  0  0  0  0  0  0  0  0  0  0
    8.2384   -6.5693   22.7417 H   0  0  0  0  0  0  0  0  0  0  0  0
    9.2444    2.3997   15.9957 H   0  0  0  0  0  0  0  0  0  0  0  0
    8.6554    0.8917   15.6447 H   0  0  0  0  0  0  0  0  0  0  0  0
   11.4104   -2.3273   25.0897 H   0  0  0  0  0  0  0  0  0  0  0  0
   10.5894   -1.9193   26.4467 H   0  0  0  0  0  0  0  0  0  0  0  0
   10.8214   -7.7043   24.7027 H   0  0  0  0  0  0  0  0  0  0  0  0
   11.8544   -6.6303   24.0287 H   0  0  0  0  0  0  0  0  0  0  0  0
   11.7684   -6.7633   25.6487 H   0  0  0  0  0  0  0  0  0  0  0  0
   12.7374   -0.0833   21.9547 H   0  0  0  0  0  0  0  0  0  0  0  0
   12.7534    1.5557   21.8837 H   0  0  0  0  0  0  0  0  0  0  0  0
   13.5044   -0.1253   19.8997 H   0  0  0  0  0  0  0  0  0  0  0  0
   13.3784    1.5187   19.8107 H   0  0  0  0  0  0  0  0  0  0  0  0
   11.7054    2.5467   18.5167 H   0  0  0  0  0  0  0  0  0  0  0  0
   11.5184   -1.4973   19.2547 H   0  0  0  0  0  0  0  0  0  0  0  0
    9.7104   -1.6983   17.7277 H   0  0  0  0  0  0  0  0  0  0  0  0
  1 13  1  0
  1 21  1  0
  2 22  1  0
  3 18  1  0
  3 23  1  0
  5 25  1  0
 11 30  1  0
 12 32  1  0
 13 14  1  0
 13 22  1  0
 14  4  1  0
 14 15  1  0
 15  6  1  0
 15 16  1  0
 16  7  1  0
 16 21  1  0
 17  8  1  0
 17 18  1  0
 17 19  1  0
 18  2  1  0
 19  9  1  0
 19 20  1  0
 20 10  1  0
 20 23  1  0
 21  5  1  0
 23 24  1  0
 25 26  1  0
 26 27  1  0
 27 28  2  0
 27 29  1  0
 28 30  1  0
 29 31  2  0
 30 32  2  0
 31 32  1  0
  4 43  1  0
  6 44  1  0
  7 45  1  0
  8 46  1  0
  9 47  1  0
 10 48  1  0
 11 49  1  0
 12 50  1  0
 13 33  1  0
 14 34  1  0
 15 35  1  0
 16 36  1  0
 17 37  1  0
 18 38  1  0
 19 39  1  0
 20 40  1  0
 21 41  1  0
 22 51  1  0
 22 52  1  0
 23 42  1  0
 24 53  1  0
 24 54  1  0
 24 55  1  0
 25 56  1  0
 25 57  1  0
 26 58  1  0
 26 59  1  0
 28 60  1  0
 29 61  1  0
 31 62  1  0
M  END
>  <BioMolTech Lead Finder dG>
-7.145

>  <BioMolTech Lead Finder VSscore>
-14.248

>  <BioMolTech Lead Finder Rank score>
-12.477

>  <BioMolTech Lead Finder LE>
-0.223

>  <BioMolTech Lead Finder Structure Name>
C:\Users\c0ins\AppData\Local\Temp\LeadFinder_7148_1\Ligand_1.sdf

>  <BioMolTech Lead Finder SDF id>
0

>  <BioMolTech Lead Finder Pose rank>
0

>  <BioMolTech Lead Finder version>
2001 1, 19 January 2019

>  <PUBCHEM_COMPOUND_CID>
69634125

>  <PUBCHEM_COMPOUND_CANONICALIZED>
1

>  <PUBCHEM_CACTVS_COMPLEXITY>
581

>  <PUBCHEM_CACTVS_HBOND_ACCEPTOR>
12

>  <PUBCHEM_CACTVS_HBOND_DONOR>
8

>  <PUBCHEM_CACTVS_ROTATABLE_BOND>
7

>  <PUBCHEM_CACTVS_SUBSKEYS>
AAADceB4PAAAAAAAAAAAAAAAAAAAAAAAAAA0SIAAAAAAAAABAAAAGgAACAAADBSwmAMyDoAABgCAAiBCAAACAAAgIAAIiAAGiIgZNiKCERKicAElwBEPmAfA4LwOIAABAAAAQABAAAIAAACAAAAAAAAAAA==

>  <PUBCHEM_IUPAC_OPENEYE_NAME>
(2R,3R,4R,5R,6S)-2-[[(2R,3S,4S,5R,6R)-6-[2-(3,4-dihydroxyphenyl)ethoxy]-3,4,5-trihydroxy-tetrahydropyran-2-yl]methoxy]-6-methyl-tetrahydropyran-3,4,5-triol

>  <PUBCHEM_IUPAC_CAS_NAME>
(2R,3R,4R,5R,6S)-2-[[(2R,3S,4S,5R,6R)-6-[2-(3,4-dihydroxyphenyl)ethoxy]-3,4,5-trihydroxy-2-oxanyl]methoxy]-6-methyloxane-3,4,5-triol

>  <PUBCHEM_IUPAC_NAME_MARKUP>
(2<I>R</I>,3<I>R</I>,4<I>R</I>,5<I>R</I>,6<I>S</I>)-2-[[(2<I>R</I>,3<I>S</I>,4<I>S</I>,5<I>R</I>,6<I>R</I>)-6-[2-(3,4-dihydroxyphenyl)ethoxy]-3,4,5-trihydroxyoxan-2-yl]methoxy]-6-methyloxane-3,4,5-tri

>  <PUBCHEM_IUPAC_NAME>
(2R,3R,4R,5R,6S)-2-[[(2R,3S,4S,5R,6R)-6-[2-(3,4-dihydroxyphenyl)ethoxy]-3,4,5-trihydroxyoxan-2-yl]methoxy]-6-methyloxane-3,4,5-triol

>  <PUBCHEM_IUPAC_SYSTEMATIC_NAME>
(2R,3R,4R,5R,6S)-2-[[(2R,3S,4S,5R,6R)-6-[2-[3,4-bis(oxidanyl)phenyl]ethoxy]-3,4,5-tris(oxidanyl)oxan-2-yl]methoxy]-6-methyl-oxane-3,4,5-triol

>  <PUBCHEM_IUPAC_TRADITIONAL_NAME>
(2R,3R,4R,5R,6S)-2-[[(2R,3S,4S,5R,6R)-6-[2-(3,4-dihydroxyphenyl)ethoxy]-3,4,5-trihydroxy-tetrahydropyran-2-yl]methoxy]-6-methyl-tetrahydropyran-3,4,5-triol

>  <PUBCHEM_IUPAC_INCHI>
InChI=1S/C20H30O12/c1-8-13(23)15(25)17(27)20(31-8)30-7-12-14(24)16(26)18(28)19(32-12)29-5-4-9-2-3-10(21)11(22)6-9/h2-3,6,8,12-28H,4-5,7H2,1H3/t8-,12+,13-,14+,15+,16-,17+,18+,19+,20+/m0/s1

>  <PUBCHEM_IUPAC_INCHIKEY>
QIMGUQIHCNDUKU-OJJLXHDHSA-N

>  <PUBCHEM_XLOGP3_AA>
-2.5

>  <PUBCHEM_EXACT_MASS>
462.173726

>  <PUBCHEM_MOLECULAR_FORMULA>
C20H30O12

>  <PUBCHEM_MOLECULAR_WEIGHT>
462.4

>  <PUBCHEM_OPENEYE_CAN_SMILES>
CC1C(C(C(C(O1)OCC2C(C(C(C(O2)OCCC3=CC(=C(C=C3)O)O)O)O)O)O)O)O

>  <PUBCHEM_OPENEYE_ISO_SMILES>
C[C@H]1[C@@H]([C@H]([C@H]([C@@H](O1)OC[C@@H]2[C@H]([C@@H]([C@H]([C@@H](O2)OCCC3=CC(=C(C=C3)O)O)O)O)O)O)O)O

>  <PUBCHEM_CACTVS_TPSA>
199

>  <PUBCHEM_MONOISOTOPIC_WEIGHT>
462.173726

>  <PUBCHEM_TOTAL_CHARGE>
0

>  <PUBCHEM_HEAVY_ATOM_COUNT>
32

>  <PUBCHEM_ATOM_DEF_STEREO_COUNT>
10

>  <PUBCHEM_ATOM_UDEF_STEREO_COUNT>
0

>  <PUBCHEM_BOND_DEF_STEREO_COUNT>
0

>  <PUBCHEM_BOND_UDEF_STEREO_COUNT>
0

>  <PUBCHEM_ISOTOPIC_ATOM_COUNT>
0

>  <PUBCHEM_COMPONENT_COUNT>
1

>  <PUBCHEM_CACTVS_TAUTO_COUNT>
-1

>  <PUBCHEM_COORDINATE_TYPE>
1
5
255

>  <PUBCHEM_BONDANNOTATIONS>
20  10  5
13  22  5
18  2  5
23  24  6
27  28  8
27  29  8
28  30  8
29  31  8
30  32  8
31  32  8
14  4  6
21  5  5
15  6  5
16  7  6
17  8  6
19  9  6

>  <LF dG>
-7.145

>  <LF VSscore>
-14.248

>  <LF Rank Score>
-12.477

>  <LF LE>
-0.223

>  <Preferred Pose_cresset>
true

>  <Favorite_cresset>
false

>  <Protein_cresset>
6Y2F_P | 6 A | With water

>  <MW_cresset>
462.4

>  <#Atoms_cresset>
32

>  <SlogP_cresset>
-0.4

>  <TPSA_cresset>
198.8

>  <Flexibility_cresset>
15.9

>  <#RB_cresset>
15

>  <Rof5_cresset>
2

>  <Filename_cresset>
Forsythoside E.sdf

>  <Confs_cresset>
0

>  <Poses_cresset>
10

>  <_cresset_fieldpoints>
    -5      10.598368      -1.897303      22.119699    -10.1760
    -5      10.140124       2.420510      20.923498    -16.9621
    -5      10.937368      -5.619303      27.718699     -7.9745
    -5       7.115368      -4.459303      28.907700    -10.7345
    -5       6.862712       1.087937      26.217278    -17.3834
    -5       4.845368      -4.886303      24.050699    -10.7695
    -5       9.135368      -8.965302      23.243698    -10.8235
    -5       7.042368      -0.721303      16.978699     -6.9390
    -5      12.881368      -0.155303      16.285698     -3.3165
    -5       9.483368       4.208697      17.891699     -7.4680
    -6       6.306740       1.562948      21.582523     16.3484
    -6      10.419368      -3.767303      18.772699      1.8860
    -6       8.455368      -5.013303      21.727699      8.7705
    -6      12.732368      -0.428303      26.628698      2.9185
    -6       6.838200      -7.907676      26.580154     16.2473
    -6       6.115368      -1.889303      26.513699      6.8460
    -6       8.571657       2.118912      14.307564     16.4396
    -6      15.249369       1.316697      21.905699      2.5815
    -6      13.303368      -2.483303      20.281698      2.3035
    -6      12.688368       1.426697      24.840698      3.7550
    -6      13.550367       3.723697      19.226698      2.0040
    -7      13.353368      -0.107303      24.503698     -2.1625
    -7       9.604368      -6.575303      27.944698     -2.6105
    -7       5.858368      -1.591303      25.306698     -1.9385
    -7       9.091368      -1.229303      28.409698     -2.1275
    -7       9.190368      -2.795303      22.684698     -3.7935
    -7       6.146368      -0.829303      22.943699     -1.8750
    -7      10.571368       3.377697      21.003698     -2.9235
    -7       7.047368       3.808697      23.464699     -1.6240
    -7       8.005368       1.248697      19.908699     -2.6195
    -7       5.139368      -5.940303      26.944698     -1.6960
    -7       6.775368      -8.284303      26.768700     -1.4525
    -7       6.246368      -7.765303      23.073698     -1.6680
    -7       9.140368      -9.463303      23.761700     -1.4320
    -7      12.992368      -0.091303      15.879699     -1.8200
    -7       7.018368       2.278697      16.630699     -1.4760
    -7      11.077368       4.742697      16.890699     -1.1700
    -7      10.374368       1.472697      14.139699     -1.3775
    -7      10.335368      -2.218303      21.822699     -3.4135
    -7      11.246368       2.626697      25.643700     -1.8720
    -7      10.213368      -6.411303      21.633699     -1.8565
    -7      12.462368      -4.309303      26.746698     -2.2275
    -8       9.358368       0.513697      24.079699      5.1500
    -8      10.747368       0.400697      18.158699      6.9095
    -8       8.670368      -5.208302      25.062698      4.8640
    -8      10.011368      -0.885303      25.437698      3.8275
    -8      10.293368      -2.595303      26.447699      2.2115
    -8      10.219368      -6.593303      24.725698      4.4655

$$$$
Site1_Lopinavir_D
  xed2sdf_05210316543D
 
 94 97  0  0  1  0  0  0  0  0999 V2000
   10.5061    0.0155   21.8137 O   0  0  0  0  0  0  0  0  0  0  0  0
   12.0971    2.4685   22.9697 O   0  0  0  0  0  0  0  0  0  0  0  0
   12.5191    6.3995   26.1397 O   0  0  0  0  0  0  0  0  0  0  0  0
   11.0001    3.1985   18.3347 O   0  0  0  0  0  0  0  0  0  0  0  0
   13.6031    3.6565   19.6587 O   0  0  0  0  0  0  0  0  0  0  0  0
   12.8591    4.3015   25.3697 N   0  0  0  0  0  0  0  0  0  0  0  0
   10.1911    3.0015   24.0957 N   0  0  0  0  0  0  0  0  0  0  0  0
   11.1921    1.3785   19.6937 N   0  0  0  0  0  0  0  0  0  0  0  0
   13.8201    5.0655   27.3727 N   0  0  0  0  0  0  0  0  0  0  0  0
    9.4641    1.8085   23.6367 C   0  0  0  0  0  0  0  0  0  0  0  0
   11.9831    4.5425   24.2057 C   0  0  0  0  0  0  0  0  0  0  0  0
    9.0121    1.9205   22.1597 C   0  0  0  0  0  0  0  0  0  0  0  0
    9.3881    0.7205   21.2577 C   0  0  0  0  0  0  0  0  0  0  0  0
   12.5421    5.4205   23.0587 C   0  0  0  0  0  0  0  0  0  0  0  0
    9.7391    1.2055   19.8337 C   0  0  0  0  0  0  0  0  0  0  0  0
    8.3351    1.4125   24.6167 C   0  0  0  0  0  0  0  0  0  0  0  0
   11.4501    3.2245   23.6837 C   0  0  0  0  0  0  0  0  0  0  0  0
   13.4491    2.9625   25.5467 C   0  0  0  0  0  0  0  0  0  0  0  0
   14.7761    3.0595   26.3047 C   0  0  0  0  0  0  0  0  0  0  0  0
    9.1501    0.2825   18.7397 C   0  0  0  0  0  0  0  0  0  0  0  0
   13.0461    5.2905   26.2837 C   0  0  0  0  0  0  0  0  0  0  0  0
   11.5981    5.4075   21.8457 C   0  0  0  0  0  0  0  0  0  0  0  0
   13.9111    4.8915   22.5997 C   0  0  0  0  0  0  0  0  0  0  0  0
   14.4681    3.7695   27.6257 C   0  0  0  0  0  0  0  0  0  0  0  0
    8.3381   -0.0275   25.1107 C   0  0  0  0  0  0  0  0  0  0  0  0
   10.0451   -0.8005   18.1507 C   0  0  0  0  0  0  0  0  0  0  0  0
   11.6751    2.3945   18.9627 C   0  0  0  0  0  0  0  0  0  0  0  0
    9.5181   -0.6855   25.3857 C   0  0  0  0  0  0  0  0  0  0  0  0
    7.1411   -0.6845   25.2967 C   0  0  0  0  0  0  0  0  0  0  0  0
   10.4831   -1.8395   18.9437 C   0  0  0  0  0  0  0  0  0  0  0  0
   10.4221   -0.7545   16.8267 C   0  0  0  0  0  0  0  0  0  0  0  0
   13.1831    2.4475   18.9937 C   0  0  0  0  0  0  0  0  0  0  0  0
    9.5011   -1.9875   25.8317 C   0  0  0  0  0  0  0  0  0  0  0  0
    7.1221   -1.9855   25.7437 C   0  0  0  0  0  0  0  0  0  0  0  0
    8.3031   -2.6385   26.0107 C   0  0  0  0  0  0  0  0  0  0  0  0
   11.2911   -2.8215   18.4187 C   0  0  0  0  0  0  0  0  0  0  0  0
   11.2311   -1.7355   16.2997 C   0  0  0  0  0  0  0  0  0  0  0  0
   11.6661   -2.7695   17.0957 C   0  0  0  0  0  0  0  0  0  0  0  0
   14.3791    4.4985   18.9647 C   0  0  0  0  0  0  0  0  0  0  0  0
   13.8281    5.6535   18.4247 C   0  0  0  0  0  0  0  0  0  0  0  0
   15.7281    4.2305   18.7557 C   0  0  0  0  0  0  0  0  0  0  0  0
   14.6141    6.5265   17.7097 C   0  0  0  0  0  0  0  0  0  0  0  0
   16.5000    5.1155   18.0387 C   0  0  0  0  0  0  0  0  0  0  0  0
   12.3601    6.0115   18.5967 C   0  0  0  0  0  0  0  0  0  0  0  0
   16.4481    2.9935   19.2727 C   0  0  0  0  0  0  0  0  0  0  0  0
   15.9491    6.2625   17.5177 C   0  0  0  0  0  0  0  0  0  0  0  0
   10.1071    1.0435   23.6457 H   0  0  0  0  0  0  0  0  0  0  0  0
   11.2461    5.1135   24.5687 H   0  0  0  0  0  0  0  0  0  0  0  0
    8.6011    0.1045   21.2077 H   0  0  0  0  0  0  0  0  0  0  0  0
    9.3101    2.0985   19.6997 H   0  0  0  0  0  0  0  0  0  0  0  0
   10.2101   -0.6545   22.5047 H   0  0  0  0  0  0  0  0  0  0  0  0
    9.7951    3.5735   24.6347 H   0  0  0  0  0  0  0  0  0  0  0  0
   11.7381    0.8245   20.1057 H   0  0  0  0  0  0  0  0  0  0  0  0
   13.9241    5.7145   27.9587 H   0  0  0  0  0  0  0  0  0  0  0  0
    9.4261    2.7435   21.7697 H   0  0  0  0  0  0  0  0  0  0  0  0
    8.0121    1.9465   22.1787 H   0  0  0  0  0  0  0  0  0  0  0  0
   12.6291    6.3525   23.4107 H   0  0  0  0  0  0  0  0  0  0  0  0
    7.4611    1.5775   24.1587 H   0  0  0  0  0  0  0  0  0  0  0  0
    8.4851    1.9715   25.4317 H   0  0  0  0  0  0  0  0  0  0  0  0
   13.6081    2.5495   24.6507 H   0  0  0  0  0  0  0  0  0  0  0  0
   12.8161    2.3965   26.0757 H   0  0  0  0  0  0  0  0  0  0  0  0
   15.4421    3.5835   25.7737 H   0  0  0  0  0  0  0  0  0  0  0  0
   15.1701    2.1545   26.4637 H   0  0  0  0  0  0  0  0  0  0  0  0
    8.8551    0.8685   17.9847 H   0  0  0  0  0  0  0  0  0  0  0  0
    8.4261   -0.2235   19.2067 H   0  0  0  0  0  0  0  0  0  0  0  0
   12.0941    5.0605   21.0497 H   0  0  0  0  0  0  0  0  0  0  0  0
   10.8121    4.8185   22.0357 H   0  0  0  0  0  0  0  0  0  0  0  0
   11.2721    6.3355   21.6627 H   0  0  0  0  0  0  0  0  0  0  0  0
   13.8641    4.6665   21.6267 H   0  0  0  0  0  0  0  0  0  0  0  0
   14.6111    5.5905   22.7497 H   0  0  0  0  0  0  0  0  0  0  0  0
   14.1501    4.0745   23.1247 H   0  0  0  0  0  0  0  0  0  0  0  0
   13.8601    3.1975   28.1757 H   0  0  0  0  0  0  0  0  0  0  0  0
   15.3261    3.9265   28.1147 H   0  0  0  0  0  0  0  0  0  0  0  0
   10.3911   -0.2135   25.2607 H   0  0  0  0  0  0  0  0  0  0  0  0
    6.2811   -0.2125   25.1057 H   0  0  0  0  0  0  0  0  0  0  0  0
   10.2111   -1.8805   19.9057 H   0  0  0  0  0  0  0  0  0  0  0  0
   10.1061   -0.0045   16.2457 H   0  0  0  0  0  0  0  0  0  0  0  0
   13.5381    1.6525   19.4867 H   0  0  0  0  0  0  0  0  0  0  0  0
   13.5381    2.4385   18.0587 H   0  0  0  0  0  0  0  0  0  0  0  0
   10.3611   -2.4595   26.0267 H   0  0  0  0  0  0  0  0  0  0  0  0
    6.2491   -2.4565   25.8747 H   0  0  0  0  0  0  0  0  0  0  0  0
    8.2901   -3.5855   26.3327 H   0  0  0  0  0  0  0  0  0  0  0  0
   11.6071   -3.5725   18.9987 H   0  0  0  0  0  0  0  0  0  0  0  0
   11.5021   -1.6965   15.3377 H   0  0  0  0  0  0  0  0  0  0  0  0
   12.2531   -3.4825   16.7137 H   0  0  0  0  0  0  0  0  0  0  0  0
   14.2121    7.3595   17.3277 H   0  0  0  0  0  0  0  0  0  0  0  0
   17.4701    4.9235   17.8957 H   0  0  0  0  0  0  0  0  0  0  0  0
   12.1811    6.8805   18.1357 H   0  0  0  0  0  0  0  0  0  0  0  0
   11.7891    5.2945   18.1977 H   0  0  0  0  0  0  0  0  0  0  0  0
   12.1471    6.0955   19.5707 H   0  0  0  0  0  0  0  0  0  0  0  0
   17.4061    3.0335   18.9917 H   0  0  0  0  0  0  0  0  0  0  0  0
   16.3901    2.9615   20.2707 H   0  0  0  0  0  0  0  0  0  0  0  0
   16.0191    2.1725   18.8957 H   0  0  0  0  0  0  0  0  0  0  0  0
   16.5181    6.9025   17.0007 H   0  0  0  0  0  0  0  0  0  0  0  0
  2 17  2  0
  3 21  2  0
  4 27  2  0
  5 32  1  0
  5 39  1  0
  6 11  1  0
  6 18  1  0
  6 21  1  0
  7 17  1  0
  8 27  1  0
  9 21  1  0
  9 24  1  0
 10  7  1  0
 10 12  1  0
 10 16  1  0
 11 14  1  0
 11 17  1  0
 12 13  1  0
 13  1  1  0
 13 15  1  0
 14 22  1  0
 14 23  1  0
 15  8  1  0
 15 20  1  0
 16 25  1  0
 18 19  1  0
 19 24  1  0
 20 26  1  0
 25 28  2  0
 25 29  1  0
 26 30  2  0
 26 31  1  0
 27 32  1  0
 28 33  1  0
 29 34  2  0
 30 36  1  0
 31 37  2  0
 33 35  2  0
 34 35  1  0
 36 38  2  0
 37 38  1  0
 39 40  2  0
 39 41  1  0
 40 42  1  0
 40 44  1  0
 41 43  2  0
 41 45  1  0
 42 46  2  0
 43 46  1  0
  1 51  1  0
  7 52  1  0
  8 53  1  0
  9 54  1  0
 10 47  1  0
 11 48  1  0
 12 55  1  0
 12 56  1  0
 13 49  1  0
 14 57  1  0
 15 50  1  0
 16 58  1  0
 16 59  1  0
 18 60  1  0
 18 61  1  0
 19 62  1  0
 19 63  1  0
 20 64  1  0
 20 65  1  0
 22 66  1  0
 22 67  1  0
 22 68  1  0
 23 69  1  0
 23 70  1  0
 23 71  1  0
 24 72  1  0
 24 73  1  0
 28 74  1  0
 29 75  1  0
 30 76  1  0
 31 77  1  0
 32 78  1  0
 32 79  1  0
 33 80  1  0
 34 81  1  0
 35 82  1  0
 36 83  1  0
 37 84  1  0
 38 85  1  0
 42 86  1  0
 43 87  1  0
 44 88  1  0
 44 89  1  0
 44 90  1  0
 45 91  1  0
 45 92  1  0
 45 93  1  0
 46 94  1  0
M  END
>  <BioMolTech Lead Finder dG>
-10.178

>  <BioMolTech Lead Finder VSscore>
-11.473

>  <BioMolTech Lead Finder Rank score>
-12.365

>  <BioMolTech Lead Finder LE>
-0.221

>  <BioMolTech Lead Finder Structure Name>
C:\Users\Odara\AppData\Local\Temp\LeadFinder_11568_1\Ligand_1.sdf

>  <BioMolTech Lead Finder SDF id>
0

>  <BioMolTech Lead Finder Pose rank>
0

>  <BioMolTech Lead Finder version>
2001 1, 19 January 2019

>  <PUBCHEM_COMPOUND_CID>
92727

>  <PUBCHEM_COMPOUND_CANONICALIZED>
1

>  <PUBCHEM_CACTVS_COMPLEXITY>
940

>  <PUBCHEM_CACTVS_HBOND_ACCEPTOR>
5

>  <PUBCHEM_CACTVS_HBOND_DONOR>
4

>  <PUBCHEM_CACTVS_ROTATABLE_BOND>
15

>  <PUBCHEM_CACTVS_SUBSKEYS>
AAADcfB/uAAAAAAAAAAAAAAAAAAAAAAAAAA8YMEAAAAAAAABUAAAHgAQCAAADTzhmAYzBoPABgCIAiFSEAICCAAgIAAIiIHMCIiOdjKE8T+XeCCu1hOYqAeQwPAOAAACAAAIAAAAAAQAABAAAAAAAAAAAA==

>  <PUBCHEM_IUPAC_OPENEYE_NAME>
(2S)-N-[(1S,3S,4S)-1-benzyl-4-[[2-(2,6-dimethylphenoxy)acetyl]amino]-3-hydroxy-5-phenyl-pentyl]-3-methyl-2-(2-oxohexahydropyrimidin-1-yl)butanamide

>  <PUBCHEM_IUPAC_CAS_NAME>
(2S)-N-[(2S,4S,5S)-5-[[2-(2,6-dimethylphenoxy)-1-oxoethyl]amino]-4-hydroxy-1,6-diphenylhexan-2-yl]-3-methyl-2-(2-oxo-1,3-diazinan-1-yl)butanamide

>  <PUBCHEM_IUPAC_NAME_MARKUP>
(2<I>S</I>)-<I>N</I>-[(2<I>S</I>,4<I>S</I>,5<I>S</I>)-5-[[2-(2,6-dimethylphenoxy)acetyl]amino]-4-hydroxy-1,6-diphenylhexan-2-yl]-3-methyl-2-(2-oxo-1,3-diazinan-1-yl)butanamide

>  <PUBCHEM_IUPAC_NAME>
(2S)-N-[(2S,4S,5S)-5-[[2-(2,6-dimethylphenoxy)acetyl]amino]-4-hydroxy-1,6-diphenylhexan-2-yl]-3-methyl-2-(2-oxo-1,3-diazinan-1-yl)butanamide

>  <PUBCHEM_IUPAC_SYSTEMATIC_NAME>
(2S)-N-[(2S,4S,5S)-5-[2-(2,6-dimethylphenoxy)ethanoylamino]-4-oxidanyl-1,6-diphenyl-hexan-2-yl]-3-methyl-2-(2-oxidanylidene-1,3-diazinan-1-yl)butanamide

>  <PUBCHEM_IUPAC_TRADITIONAL_NAME>
(2S)-N-[(1S,3S,4S)-1-benzyl-4-[[2-(2,6-dimethylphenoxy)acetyl]amino]-3-hydroxy-5-phenyl-pentyl]-2-(2-ketohexahydropyrimidin-1-yl)-3-methyl-butyramide

>  <PUBCHEM_IUPAC_INCHI>
InChI=1S/C37H48N4O5/c1-25(2)34(41-20-12-19-38-37(41)45)36(44)39-30(21-28-15-7-5-8-16-28)23-32(42)31(22-29-17-9-6-10-18-29)40-33(43)24-46-35-26(3)13-11-14-27(35)4/h5-11,13-18,25,30-32,34,42H,12,19-24H2

>  <PUBCHEM_IUPAC_INCHIKEY>
KJHKTHWMRKYKJE-SUGCFTRWSA-N

>  <PUBCHEM_XLOGP3_AA>
5.9

>  <PUBCHEM_EXACT_MASS>
628.362471

>  <PUBCHEM_MOLECULAR_FORMULA>
C37H48N4O5

>  <PUBCHEM_MOLECULAR_WEIGHT>
628.8

>  <PUBCHEM_OPENEYE_CAN_SMILES>
CC1=C(C(=CC=C1)C)OCC(=O)NC(CC2=CC=CC=C2)C(CC(CC3=CC=CC=C3)NC(=O)C(C(C)C)N4CCCNC4=O)O

>  <PUBCHEM_OPENEYE_ISO_SMILES>
CC1=C(C(=CC=C1)C)OCC(=O)N[C@@H](CC2=CC=CC=C2)[C@H](C[C@H](CC3=CC=CC=C3)NC(=O)[C@H](C(C)C)N4CCCNC4=O)O

>  <PUBCHEM_CACTVS_TPSA>
120

>  <PUBCHEM_MONOISOTOPIC_WEIGHT>
628.362471

>  <PUBCHEM_TOTAL_CHARGE>
0

>  <PUBCHEM_HEAVY_ATOM_COUNT>
46

>  <PUBCHEM_ATOM_DEF_STEREO_COUNT>
4

>  <PUBCHEM_ATOM_UDEF_STEREO_COUNT>
0

>  <PUBCHEM_BOND_DEF_STEREO_COUNT>
0

>  <PUBCHEM_BOND_UDEF_STEREO_COUNT>
0

>  <PUBCHEM_ISOTOPIC_ATOM_COUNT>
0

>  <PUBCHEM_COMPONENT_COUNT>
1

>  <PUBCHEM_CACTVS_TAUTO_COUNT>
-1

>  <PUBCHEM_COORDINATE_TYPE>
1
5
255

>  <PUBCHEM_BONDANNOTATIONS>
13  1  6
11  17  5
25  28  8
25  29  8
26  30  8
26  31  8
28  33  8
29  34  8
30  36  8
31  37  8
33  35  8
34  35  8
36  38  8
37  38  8
39  40  8
39  41  8
40  42  8
41  43  8
42  46  8
43  46  8
10  7  6
15  8  5

>  <LF dG>
-10.178

>  <LF VSscore>
-11.473

>  <LF Rank Score>
-12.365

>  <LF LE>
-0.221

>  <Preferred Pose_cresset>
true

>  <Favorite_cresset>
false

>  <Protein_cresset>
6Y2F_P | 5 A | With water

>  <MW_cresset>
628.8

>  <#Atoms_cresset>
46

>  <SlogP_cresset>
4.7

>  <TPSA_cresset>
120

>  <Flexibility_cresset>
16.1

>  <#RB_cresset>
16

>  <Rof5_cresset>
1

>  <Filename_cresset>
Lopinavir.sdf

>  <Confs_cresset>
0

>  <Poses_cresset>
10

>  <_cresset_fieldpoints>
    -5      12.103050       0.891546      22.251743    -14.7980
    -5      13.220051      -0.413454      18.018744     -4.6485
    -5      13.415051       2.238546      21.871744    -13.7440
    -5      12.471050       8.032546      26.704744    -12.6055
    -5      11.926050       7.894546      25.430744    -12.4950
    -5       8.229051      -0.412454      28.321743     -2.9915
    -5      15.374050       6.848546      20.724743     -8.3025
    -5       8.531051      -3.246454      16.791744     -4.8115
    -5      11.366051       3.815546      16.673744    -12.3320
    -6      12.531051      -0.059454      26.306744      4.1665
    -6       8.023050       4.345546      25.281744      5.8570
    -6      14.942051       5.706546      29.874744      3.7545
    -6       6.286051       0.373546      22.281744      5.7780
    -6      15.179050      -0.028454      19.144745      1.3300
    -6      10.575050      -4.771454      26.641743      3.4970
    -6       6.116051      -4.832454      26.534744      3.3525
    -6      13.669050       0.645546      27.834743      4.2340
    -6       9.135051      -2.053454      22.114744      6.6090
    -6      19.422050       3.797546      17.777744      1.6045
    -7      14.039051       1.785546      21.980743     -3.8885
    -7       8.520050       5.022546      23.103745     -2.8190
    -7      10.893050       7.659546      24.880743     -1.8510
    -7      15.509050       6.139546      25.168743     -2.7045
    -7      10.287050       2.489546      16.282743     -2.5665
    -7       9.572050       4.561546      19.642744     -3.4550
    -7      11.365050       2.325546      16.106743     -2.5920
    -7      13.983050       3.583546      15.768744     -2.5360
    -7       6.256051      -0.041454      22.209743     -2.6990
    -7       6.357050       1.360546      20.151743     -2.1050
    -7      10.499050       2.650546      26.865744     -3.4215
    -7       8.245050       0.084546      28.493744     -1.8585
    -7      12.210051       3.671546      16.155743     -2.7375
    -7      13.812051      -0.562454      18.347744     -2.7605
    -7       4.187050      -0.578454      26.837744     -0.9965
    -7      10.343051      -5.110454      24.784744     -0.9670
    -7      10.543051      -5.073454      26.792744     -0.9695
    -7       6.009050      -5.051454      26.695744     -0.9685
    -7       8.638050      -2.214454      22.348743     -3.4660
    -7      12.461051      -1.095454      21.487743     -2.7120
    -7      13.258051      -5.578454      18.160744     -0.9695
    -7      13.175051      -3.519454      14.151744     -0.9690
    -7       8.053051      -3.292454      16.958744     -1.8400
    -7      19.218050       6.410546      16.533745     -1.0055
    -7      12.376051       0.205546      23.320744     -3.7270
    -7      13.988050       7.672546      20.998743     -3.0785
    -7      15.471050       9.222546      15.877744     -1.0020
    -8       8.652050       1.380546      23.381744      5.3075
    -8      12.869051       1.836546      18.569744      2.9100
    -8       9.049050       0.581546      19.904743      5.0800
    -8       9.029051       0.596546      24.638744      5.7625
    -8      15.180051       5.396546      18.220743      7.0895
    -8      14.233050       2.985546      26.592743      4.9445
    -8      12.498051       5.013546      22.734743      5.9220
    -8       9.029051       1.561546      20.985744      5.0285
    -8       8.322050      -1.327454      25.557743      7.2000
    -8      10.854051      -1.781454      17.623745      7.1885

$$$$
W_Site1_Lopinavir_D
  xed2sdf_05210316543D
 
 94 97  0  0  1  0  0  0  0  0999 V2000
   12.6889    0.7847   24.4796 O   0  0  0  0  0  0  0  0  0  0  0  0
    8.8159   -2.1063   22.0566 O   0  0  0  0  0  0  0  0  0  0  0  0
    8.9749   -0.5483   26.8786 O   0  0  0  0  0  0  0  0  0  0  0  0
   16.1179   -0.3083   20.8516 O   0  0  0  0  0  0  0  0  0  0  0  0
   15.0889    2.1947   19.3656 O   0  0  0  0  0  0  0  0  0  0  0  0
    7.9699   -0.2993   24.8696 N   0  0  0  0  0  0  0  0  0  0  0  0
   10.0459   -0.4503   23.0206 N   0  0  0  0  0  0  0  0  0  0  0  0
   14.8999    0.9787   22.2856 N   0  0  0  0  0  0  0  0  0  0  0  0
    7.8279    1.3397   26.5456 N   0  0  0  0  0  0  0  0  0  0  0  0
   10.8209   -0.1773   21.8016 C   0  0  0  0  0  0  0  0  0  0  0  0
    8.4999   -1.5953   24.3986 C   0  0  0  0  0  0  0  0  0  0  0  0
   12.1929    0.4757   22.1036 C   0  0  0  0  0  0  0  0  0  0  0  0
   12.9259   -0.0713   23.3526 C   0  0  0  0  0  0  0  0  0  0  0  0
    7.5479   -2.8163   24.4406 C   0  0  0  0  0  0  0  0  0  0  0  0
   14.4449   -0.1663   23.0866 C   0  0  0  0  0  0  0  0  0  0  0  0
    9.9809    0.5767   20.7436 C   0  0  0  0  0  0  0  0  0  0  0  0
    9.1219   -1.4263   23.0276 C   0  0  0  0  0  0  0  0  0  0  0  0
    7.1759    0.5217   23.9376 C   0  0  0  0  0  0  0  0  0  0  0  0
    6.1829    1.3947   24.7096 C   0  0  0  0  0  0  0  0  0  0  0  0
   15.2589   -0.3283   24.3926 C   0  0  0  0  0  0  0  0  0  0  0  0
    8.2809    0.1367   26.1186 C   0  0  0  0  0  0  0  0  0  0  0  0
    6.7389   -2.8373   25.7486 C   0  0  0  0  0  0  0  0  0  0  0  0
    8.3509   -4.1243   24.3576 C   0  0  0  0  0  0  0  0  0  0  0  0
    7.0109    2.2207   25.6976 C   0  0  0  0  0  0  0  0  0  0  0  0
   10.0329    0.0347   19.3216 C   0  0  0  0  0  0  0  0  0  0  0  0
   15.6309    0.9277   25.1716 C   0  0  0  0  0  0  0  0  0  0  0  0
   15.6839    0.7767   21.2156 C   0  0  0  0  0  0  0  0  0  0  0  0
   10.3899   -1.2723   19.0686 C   0  0  0  0  0  0  0  0  0  0  0  0
    9.7089    0.8617   18.2686 C   0  0  0  0  0  0  0  0  0  0  0  0
   16.5879    1.7877   24.6776 C   0  0  0  0  0  0  0  0  0  0  0  0
   15.0139    1.2167   26.3696 C   0  0  0  0  0  0  0  0  0  0  0  0
   15.9879    2.0617   20.4856 C   0  0  0  0  0  0  0  0  0  0  0  0
   10.4319   -1.7443   17.7766 C   0  0  0  0  0  0  0  0  0  0  0  0
    9.7489    0.3917   16.9756 C   0  0  0  0  0  0  0  0  0  0  0  0
   10.1129   -0.9123   16.7286 C   0  0  0  0  0  0  0  0  0  0  0  0
   16.9289    2.9227   25.3756 C   0  0  0  0  0  0  0  0  0  0  0  0
   15.3529    2.3517   27.0696 C   0  0  0  0  0  0  0  0  0  0  0  0
   16.3109    3.2057   26.5726 C   0  0  0  0  0  0  0  0  0  0  0  0
   14.7559    3.4387   18.9946 C   0  0  0  0  0  0  0  0  0  0  0  0
   13.4569    3.8897   19.1916 C   0  0  0  0  0  0  0  0  0  0  0  0
   15.6819    4.2857   18.3946 C   0  0  0  0  0  0  0  0  0  0  0  0
   13.1019    5.1637   18.8166 C   0  0  0  0  0  0  0  0  0  0  0  0
   15.3099    5.5577   18.0266 C   0  0  0  0  0  0  0  0  0  0  0  0
   12.3829    3.0217   19.8286 C   0  0  0  0  0  0  0  0  0  0  0  0
   17.1269    3.9067   18.1026 C   0  0  0  0  0  0  0  0  0  0  0  0
   14.0259    6.0007   18.2356 C   0  0  0  0  0  0  0  0  0  0  0  0
   11.0469   -1.0573   21.3846 H   0  0  0  0  0  0  0  0  0  0  0  0
    9.1889   -1.8403   25.0806 H   0  0  0  0  0  0  0  0  0  0  0  0
   12.5719   -0.9853   23.5516 H   0  0  0  0  0  0  0  0  0  0  0  0
   14.6109   -0.9973   22.5546 H   0  0  0  0  0  0  0  0  0  0  0  0
   12.8529    1.7497   24.2466 H   0  0  0  0  0  0  0  0  0  0  0  0
   10.1949    0.0207   23.7476 H   0  0  0  0  0  0  0  0  0  0  0  0
   14.6389    1.7927   22.5016 H   0  0  0  0  0  0  0  0  0  0  0  0
    8.0459    1.6107   27.3546 H   0  0  0  0  0  0  0  0  0  0  0  0
   12.0479    1.4567   22.2326 H   0  0  0  0  0  0  0  0  0  0  0  0
   12.7799    0.2577   21.3236 H   0  0  0  0  0  0  0  0  0  0  0  0
    6.9279   -2.7383   23.6606 H   0  0  0  0  0  0  0  0  0  0  0  0
   10.2969    1.5247   20.7226 H   0  0  0  0  0  0  0  0  0  0  0  0
    9.0299    0.4647   21.0336 H   0  0  0  0  0  0  0  0  0  0  0  0
    6.6759   -0.0773   23.3126 H   0  0  0  0  0  0  0  0  0  0  0  0
    7.7939    1.1147   23.4216 H   0  0  0  0  0  0  0  0  0  0  0  0
    5.5249    0.8227   25.1996 H   0  0  0  0  0  0  0  0  0  0  0  0
    5.6619    1.9847   24.0926 H   0  0  0  0  0  0  0  0  0  0  0  0
   16.1109   -0.7953   24.1566 H   0  0  0  0  0  0  0  0  0  0  0  0
   14.6449   -0.8243   25.0066 H   0  0  0  0  0  0  0  0  0  0  0  0
    6.9259   -3.6923   26.2326 H   0  0  0  0  0  0  0  0  0  0  0  0
    7.0029   -2.0613   26.3216 H   0  0  0  0  0  0  0  0  0  0  0  0
    5.7629   -2.7733   25.5416 H   0  0  0  0  0  0  0  0  0  0  0  0
    8.1589   -4.6763   25.1686 H   0  0  0  0  0  0  0  0  0  0  0  0
    8.0889   -4.6303   23.5356 H   0  0  0  0  0  0  0  0  0  0  0  0
    9.3289   -3.9173   24.3136 H   0  0  0  0  0  0  0  0  0  0  0  0
    7.6099    2.8407   25.1906 H   0  0  0  0  0  0  0  0  0  0  0  0
    6.3899    2.7467   26.2786 H   0  0  0  0  0  0  0  0  0  0  0  0
   10.6199   -1.8813   19.8276 H   0  0  0  0  0  0  0  0  0  0  0  0
    9.4429    1.8097   18.4446 H   0  0  0  0  0  0  0  0  0  0  0  0
   17.0379    1.5847   23.8076 H   0  0  0  0  0  0  0  0  0  0  0  0
   14.3169    0.5977   26.7316 H   0  0  0  0  0  0  0  0  0  0  0  0
   15.8709    2.8377   21.1046 H   0  0  0  0  0  0  0  0  0  0  0  0
   16.9329    2.0437   20.1566 H   0  0  0  0  0  0  0  0  0  0  0  0
   10.6959   -2.6923   17.5986 H   0  0  0  0  0  0  0  0  0  0  0  0
    9.5139    0.9977   16.2156 H   0  0  0  0  0  0  0  0  0  0  0  0
   10.1449   -1.2543   15.7896 H   0  0  0  0  0  0  0  0  0  0  0  0
   17.6249    3.5427   25.0136 H   0  0  0  0  0  0  0  0  0  0  0  0
   14.9039    2.5557   27.9386 H   0  0  0  0  0  0  0  0  0  0  0  0
   16.5579    4.0307   27.0806 H   0  0  0  0  0  0  0  0  0  0  0  0
   12.1669    5.4847   18.9656 H   0  0  0  0  0  0  0  0  0  0  0  0
   15.9809    6.1657   17.6006 H   0  0  0  0  0  0  0  0  0  0  0  0
   11.5309    3.5437   19.8796 H   0  0  0  0  0  0  0  0  0  0  0  0
   12.2419    2.1997   19.2766 H   0  0  0  0  0  0  0  0  0  0  0  0
   12.6689    2.7527   20.7476 H   0  0  0  0  0  0  0  0  0  0  0  0
   17.5859    4.6837   17.6706 H   0  0  0  0  0  0  0  0  0  0  0  0
   17.5939    3.6717   18.9546 H   0  0  0  0  0  0  0  0  0  0  0  0
   17.1509    3.1167   17.4896 H   0  0  0  0  0  0  0  0  0  0  0  0
   13.7649    6.9277   17.9676 H   0  0  0  0  0  0  0  0  0  0  0  0
  2 17  2  0
  3 21  2  0
  4 27  2  0
  5 32  1  0
  5 39  1  0
  6 11  1  0
  6 18  1  0
  6 21  1  0
  7 17  1  0
  8 27  1  0
  9 21  1  0
  9 24  1  0
 10  7  1  0
 10 12  1  0
 10 16  1  0
 11 14  1  0
 11 17  1  0
 12 13  1  0
 13  1  1  0
 13 15  1  0
 14 22  1  0
 14 23  1  0
 15  8  1  0
 15 20  1  0
 16 25  1  0
 18 19  1  0
 19 24  1  0
 20 26  1  0
 25 28  2  0
 25 29  1  0
 26 30  2  0
 26 31  1  0
 27 32  1  0
 28 33  1  0
 29 34  2  0
 30 36  1  0
 31 37  2  0
 33 35  2  0
 34 35  1  0
 36 38  2  0
 37 38  1  0
 39 40  2  0
 39 41  1  0
 40 42  1  0
 40 44  1  0
 41 43  2  0
 41 45  1  0
 42 46  2  0
 43 46  1  0
  1 51  1  0
  7 52  1  0
  8 53  1  0
  9 54  1  0
 10 47  1  0
 11 48  1  0
 12 55  1  0
 12 56  1  0
 13 49  1  0
 14 57  1  0
 15 50  1  0
 16 58  1  0
 16 59  1  0
 18 60  1  0
 18 61  1  0
 19 62  1  0
 19 63  1  0
 20 64  1  0
 20 65  1  0
 22 66  1  0
 22 67  1  0
 22 68  1  0
 23 69  1  0
 23 70  1  0
 23 71  1  0
 24 72  1  0
 24 73  1  0
 28 74  1  0
 29 75  1  0
 30 76  1  0
 31 77  1  0
 32 78  1  0
 32 79  1  0
 33 80  1  0
 34 81  1  0
 35 82  1  0
 36 83  1  0
 37 84  1  0
 38 85  1  0
 42 86  1  0
 43 87  1  0
 44 88  1  0
 44 89  1  0
 44 90  1  0
 45 91  1  0
 45 92  1  0
 45 93  1  0
 46 94  1  0
M  END
>  <BioMolTech Lead Finder dG>
-8.165

>  <BioMolTech Lead Finder VSscore>
-10.384

>  <BioMolTech Lead Finder Rank score>
-11.701

>  <BioMolTech Lead Finder LE>
-0.178

>  <BioMolTech Lead Finder Structure Name>
C:\Users\Odara\AppData\Local\Temp\LeadFinder_8600_1\Ligand_1.sdf

>  <BioMolTech Lead Finder SDF id>
0

>  <BioMolTech Lead Finder Pose rank>
0

>  <BioMolTech Lead Finder version>
2001 1, 19 January 2019

>  <PUBCHEM_COMPOUND_CID>
92727

>  <PUBCHEM_COMPOUND_CANONICALIZED>
1

>  <PUBCHEM_CACTVS_COMPLEXITY>
940

>  <PUBCHEM_CACTVS_HBOND_ACCEPTOR>
5

>  <PUBCHEM_CACTVS_HBOND_DONOR>
4

>  <PUBCHEM_CACTVS_ROTATABLE_BOND>
15

>  <PUBCHEM_CACTVS_SUBSKEYS>
AAADcfB/uAAAAAAAAAAAAAAAAAAAAAAAAAA8YMEAAAAAAAABUAAAHgAQCAAADTzhmAYzBoPABgCIAiFSEAICCAAgIAAIiIHMCIiOdjKE8T+XeCCu1hOYqAeQwPAOAAACAAAIAAAAAAQAABAAAAAAAAAAAA==

>  <PUBCHEM_IUPAC_OPENEYE_NAME>
(2S)-N-[(1S,3S,4S)-1-benzyl-4-[[2-(2,6-dimethylphenoxy)acetyl]amino]-3-hydroxy-5-phenyl-pentyl]-3-methyl-2-(2-oxohexahydropyrimidin-1-yl)butanamide

>  <PUBCHEM_IUPAC_CAS_NAME>
(2S)-N-[(2S,4S,5S)-5-[[2-(2,6-dimethylphenoxy)-1-oxoethyl]amino]-4-hydroxy-1,6-diphenylhexan-2-yl]-3-methyl-2-(2-oxo-1,3-diazinan-1-yl)butanamide

>  <PUBCHEM_IUPAC_NAME_MARKUP>
(2<I>S</I>)-<I>N</I>-[(2<I>S</I>,4<I>S</I>,5<I>S</I>)-5-[[2-(2,6-dimethylphenoxy)acetyl]amino]-4-hydroxy-1,6-diphenylhexan-2-yl]-3-methyl-2-(2-oxo-1,3-diazinan-1-yl)butanamide

>  <PUBCHEM_IUPAC_NAME>
(2S)-N-[(2S,4S,5S)-5-[[2-(2,6-dimethylphenoxy)acetyl]amino]-4-hydroxy-1,6-diphenylhexan-2-yl]-3-methyl-2-(2-oxo-1,3-diazinan-1-yl)butanamide

>  <PUBCHEM_IUPAC_SYSTEMATIC_NAME>
(2S)-N-[(2S,4S,5S)-5-[2-(2,6-dimethylphenoxy)ethanoylamino]-4-oxidanyl-1,6-diphenyl-hexan-2-yl]-3-methyl-2-(2-oxidanylidene-1,3-diazinan-1-yl)butanamide

>  <PUBCHEM_IUPAC_TRADITIONAL_NAME>
(2S)-N-[(1S,3S,4S)-1-benzyl-4-[[2-(2,6-dimethylphenoxy)acetyl]amino]-3-hydroxy-5-phenyl-pentyl]-2-(2-ketohexahydropyrimidin-1-yl)-3-methyl-butyramide

>  <PUBCHEM_IUPAC_INCHI>
InChI=1S/C37H48N4O5/c1-25(2)34(41-20-12-19-38-37(41)45)36(44)39-30(21-28-15-7-5-8-16-28)23-32(42)31(22-29-17-9-6-10-18-29)40-33(43)24-46-35-26(3)13-11-14-27(35)4/h5-11,13-18,25,30-32,34,42H,12,19-24H2

>  <PUBCHEM_IUPAC_INCHIKEY>
KJHKTHWMRKYKJE-SUGCFTRWSA-N

>  <PUBCHEM_XLOGP3_AA>
5.9

>  <PUBCHEM_EXACT_MASS>
628.362471

>  <PUBCHEM_MOLECULAR_FORMULA>
C37H48N4O5

>  <PUBCHEM_MOLECULAR_WEIGHT>
628.8

>  <PUBCHEM_OPENEYE_CAN_SMILES>
CC1=C(C(=CC=C1)C)OCC(=O)NC(CC2=CC=CC=C2)C(CC(CC3=CC=CC=C3)NC(=O)C(C(C)C)N4CCCNC4=O)O

>  <PUBCHEM_OPENEYE_ISO_SMILES>
CC1=C(C(=CC=C1)C)OCC(=O)N[C@@H](CC2=CC=CC=C2)[C@H](C[C@H](CC3=CC=CC=C3)NC(=O)[C@H](C(C)C)N4CCCNC4=O)O

>  <PUBCHEM_CACTVS_TPSA>
120

>  <PUBCHEM_MONOISOTOPIC_WEIGHT>
628.362471

>  <PUBCHEM_TOTAL_CHARGE>
0

>  <PUBCHEM_HEAVY_ATOM_COUNT>
46

>  <PUBCHEM_ATOM_DEF_STEREO_COUNT>
4

>  <PUBCHEM_ATOM_UDEF_STEREO_COUNT>
0

>  <PUBCHEM_BOND_DEF_STEREO_COUNT>
0

>  <PUBCHEM_BOND_UDEF_STEREO_COUNT>
0

>  <PUBCHEM_ISOTOPIC_ATOM_COUNT>
0

>  <PUBCHEM_COMPONENT_COUNT>
1

>  <PUBCHEM_CACTVS_TAUTO_COUNT>
-1

>  <PUBCHEM_COORDINATE_TYPE>
1
5
255

>  <PUBCHEM_BONDANNOTATIONS>
13  1  6
11  17  5
25  28  8
25  29  8
26  30  8
26  31  8
28  33  8
29  34  8
30  36  8
31  37  8
33  35  8
34  35  8
36  38  8
37  38  8
39  40  8
39  41  8
40  42  8
41  43  8
42  46  8
43  46  8
10  7  6
15  8  5

>  <LF dG>
-8.165

>  <LF VSscore>
-10.384

>  <LF Rank Score>
-11.701

>  <LF LE>
-0.178

>  <Preferred Pose_cresset>
true

>  <Favorite_cresset>
false

>  <Protein_cresset>
6Y2F_P | 5 A | With water

>  <MW_cresset>
628.8

>  <#Atoms_cresset>
46

>  <SlogP_cresset>
4.7

>  <TPSA_cresset>
120

>  <Flexibility_cresset>
16.1

>  <#RB_cresset>
16

>  <Rof5_cresset>
1

>  <Filename_cresset>
Lopinavir.sdf

>  <Confs_cresset>
0

>  <Poses_cresset>
10

>  <_cresset_fieldpoints>
    -5       9.793904      -1.970287      27.508577    -12.2020
    -5       9.747905      -0.887287      28.399578    -11.9705
    -5       7.813905      -3.309287      21.218578    -11.7415
    -5      16.862904      -0.721287      19.330578    -12.4700
    -5      17.909904       0.387713      27.220577     -5.1195
    -5      11.735905       0.080713      26.015577     -9.2005
    -6       7.699904       3.541713      28.279577      4.9920
    -6      13.290905       3.154713      23.154577     12.0915
    -6      17.668905       3.663713      22.256577      5.9840
    -6      17.974905       7.119713      17.414577      3.3820
    -6      15.573904       8.544713      17.167578      3.1820
    -7       7.054904      -1.143286      20.896578     -3.2785
    -7      11.387904      -3.200286      22.802578     -3.1585
    -7      10.855905      -3.488286      22.009577     -3.0785
    -7       9.521905      -2.871286      27.372578     -2.3355
    -7      18.056904      -0.279287      22.465578     -2.5190
    -7      16.358906       0.571713      17.632578     -2.1165
    -7       4.493905      -1.392287      23.735577     -2.2045
    -7       8.987905       3.667713      20.075577     -2.2210
    -7       5.776905      -0.198287      27.639578     -2.4725
    -7      11.546905      -2.730287      24.877577     -2.6630
    -7       5.228905      -5.108286      23.879578     -1.4895
    -7       9.999905       2.424713      23.775578     -3.6370
    -7      10.915905      -3.789287      15.107577     -0.9695
    -7      10.014904       0.394713      13.593577     -0.9715
    -7      15.416904       4.768713      29.455578     -0.9685
    -7      18.194904       0.171713      27.288578     -1.8320
    -7      11.278905      -0.406287      26.008577     -3.4765
    -7      18.215904       5.978714      26.087578     -0.9715
    -7      13.518905      -0.002287      18.985577     -4.5385
    -7      13.428905       3.671714      23.122578     -3.5760
    -7      14.052904       4.067713      22.623577     -3.5290
    -7      11.083904       7.742713      18.049578     -1.0055
    -7      15.585905       8.662713      16.762577     -1.0050
    -8      15.970904       2.064713      25.870577      7.1865
    -8      14.383904       4.749713      18.603577      7.0805
    -8      10.073904      -0.436287      18.028578      7.2075
    -8      12.108905      -0.081287      22.247578      4.9790
    -8       7.825904      -3.004287      24.873577      5.9380
    -8      10.422905      -0.293287      20.289577      5.8530
    -8       6.756905       1.586713      24.568577      4.9485
    -8      13.067904      -0.208287      22.481577      4.7665
    -8      14.275905      -0.537287      23.821577      4.7310
    -8      15.789905       4.432714      18.319578      5.4945

$$$$
Site1_DAR_D
  xed2sdf_05210316543D
 
 82 86  0  0  1  0  0  0  0  0999 V2000
    8.7727   -0.9317   15.6386 O   0  0  0  0  0  0  0  0  0  0  0  0
    9.3647   -0.3997   16.5616 C   0  0  0  0  0  0  0  0  0  0  0  0
    9.8247   -1.1867   17.7676 C   0  0  0  0  0  0  0  0  0  0  0  0
    9.7787   -0.3437   19.0426 C   0  0  0  0  0  0  0  0  0  0  0  0
   10.6927    0.8563   18.7786 C   0  0  0  0  0  0  0  0  0  0  0  0
   10.7197    1.6793   19.9966 N   0  0  0  0  0  0  0  0  0  0  0  0
    9.6417    1.6483   20.9986 C   0  0  0  0  0  0  0  0  0  0  0  0
   10.5497    2.1323   22.1446 C   0  0  0  0  0  0  0  0  0  0  0  0
   10.0527    2.5353   23.5186 C   0  0  0  0  0  0  0  0  0  0  0  0
    8.7887    2.1023   23.8056 N   0  0  0  0  0  0  0  0  0  0  0  0
    8.5387    1.2663   24.9896 C   0  0  0  0  0  0  0  0  0  0  0  0
    8.9087   -0.1877   24.6606 C   0  0  0  0  0  0  0  0  0  0  0  0
   10.0457   -0.6447   25.5866 C   0  0  0  0  0  0  0  0  0  0  0  0
   10.2217   -2.1677   25.4896 C   0  0  0  0  0  0  0  0  0  0  0  0
   10.6697   -2.5097   24.0626 C   0  0  0  0  0  0  0  0  0  0  0  0
    9.5917   -3.3367   23.3486 C   0  0  0  0  0  0  0  0  0  0  0  0
   10.3027   -4.2097   22.4036 N   0  0  0  0  0  0  0  0  0  0  0  0
   10.3537   -3.8947   21.0916 C   0  0  0  0  0  0  0  0  0  0  0  0
    9.7377   -2.9557   20.5936 O   0  0  0  0  0  0  0  0  0  0  0  0
   11.2127   -4.6947   20.1806 C   0  0  0  0  0  0  0  0  0  0  0  0
   11.9527   -4.0497   19.2106 C   0  0  0  0  0  0  0  0  0  0  0  0
   12.7167   -4.7657   18.3246 C   0  0  0  0  0  0  0  0  0  0  0  0
   12.8007   -6.1097   18.3266 N   0  0  0  0  0  0  0  0  0  0  0  0
   12.0837   -6.7307   19.2776 C   0  0  0  0  0  0  0  0  0  0  0  0
   11.3007   -6.0847   20.2166 C   0  0  0  0  0  0  0  0  0  0  0  0
   10.6167   -6.8487   21.1706 N   0  0  0  0  0  0  0  0  0  0  0  0
   11.1687   -7.6377   22.1136 C   0  0  0  0  0  0  0  0  0  0  0  0
   12.3687   -7.7937   22.2786 O   0  0  0  0  0  0  0  0  0  0  0  0
   10.1447   -8.3397   22.9796 C   0  0  0  0  0  0  0  0  0  0  0  0
    9.6717   -7.4067   24.0806 C   0  0  0  0  0  0  0  0  0  0  0  0
   10.5147   -7.0927   25.1236 C   0  0  0  0  0  0  0  0  0  0  0  0
   10.0917   -6.2517   26.1266 C   0  0  0  0  0  0  0  0  0  0  0  0
    8.8227   -5.7217   26.0896 C   0  0  0  0  0  0  0  0  0  0  0  0
    7.9767   -6.0347   25.0486 C   0  0  0  0  0  0  0  0  0  0  0  0
    6.3727   -5.3647   25.0016 Cl  0  0  0  0  0  0  0  0  0  0  0  0
    8.4017   -6.8777   24.0456 C   0  0  0  0  0  0  0  0  0  0  0  0
   10.8677    3.2593   24.3046 C   0  0  0  0  0  0  0  0  0  0  0  0
   12.1877    3.6623   23.8186 C   0  0  0  0  0  0  0  0  0  0  0  0
   12.4347    3.6703   22.5106 C   0  0  0  0  0  0  0  0  0  0  0  0
   11.3817    3.2543   21.5176 C   0  0  0  0  0  0  0  0  0  0  0  0
   11.7237    2.5333   20.2456 C   0  0  0  0  0  0  0  0  0  0  0  0
   12.7277    2.7013   19.5676 O   0  0  0  0  0  0  0  0  0  0  0  0
   10.2587    1.6413   17.5586 C   0  0  0  0  0  0  0  0  0  0  0  0
   10.4417    2.8443   17.4746 O   0  0  0  0  0  0  0  0  0  0  0  0
    9.6537    0.9213   16.5876 N   0  0  0  0  0  0  0  0  0  0  0  0
   11.6187    0.5403   18.5686 H   0  0  0  0  0  0  0  0  0  0  0  0
   11.0077    1.2963   22.4466 H   0  0  0  0  0  0  0  0  0  0  0  0
   11.0117    4.1583   21.3026 H   0  0  0  0  0  0  0  0  0  0  0  0
   10.7627   -1.4987   17.6146 H   0  0  0  0  0  0  0  0  0  0  0  0
    9.2067   -1.9637   17.8866 H   0  0  0  0  0  0  0  0  0  0  0  0
   10.1107   -0.8717   19.8246 H   0  0  0  0  0  0  0  0  0  0  0  0
    8.8467   -0.0547   19.2616 H   0  0  0  0  0  0  0  0  0  0  0  0
    9.2667    0.7343   21.1486 H   0  0  0  0  0  0  0  0  0  0  0  0
    8.8047    2.1613   20.8106 H   0  0  0  0  0  0  0  0  0  0  0  0
    8.2177    2.0303   23.1406 H   0  0  0  0  0  0  0  0  0  0  0  0
    7.5727    1.3203   25.2416 H   0  0  0  0  0  0  0  0  0  0  0  0
    9.0927    1.5903   25.7556 H   0  0  0  0  0  0  0  0  0  0  0  0
    9.2057   -0.2517   23.7076 H   0  0  0  0  0  0  0  0  0  0  0  0
    8.1117   -0.7757   24.7976 H   0  0  0  0  0  0  0  0  0  0  0  0
    9.8277   -0.3937   26.5306 H   0  0  0  0  0  0  0  0  0  0  0  0
   10.8957   -0.1987   25.3076 H   0  0  0  0  0  0  0  0  0  0  0  0
    9.3557   -2.6237   25.6936 H   0  0  0  0  0  0  0  0  0  0  0  0
   10.9067   -2.4777   26.1486 H   0  0  0  0  0  0  0  0  0  0  0  0
   11.5207   -3.0327   24.0996 H   0  0  0  0  0  0  0  0  0  0  0  0
   10.8147   -1.6597   23.5556 H   0  0  0  0  0  0  0  0  0  0  0  0
    8.9587   -2.7367   22.8606 H   0  0  0  0  0  0  0  0  0  0  0  0
    9.0517   -3.8707   23.9996 H   0  0  0  0  0  0  0  0  0  0  0  0
   10.7167   -4.9257   22.7056 H   0  0  0  0  0  0  0  0  0  0  0  0
   11.9327   -3.0517   19.1536 H   0  0  0  0  0  0  0  0  0  0  0  0
   13.2397   -4.2607   17.6386 H   0  0  0  0  0  0  0  0  0  0  0  0
   12.1187   -7.7297   19.3086 H   0  0  0  0  0  0  0  0  0  0  0  0
    9.7387   -6.8437   21.1106 H   0  0  0  0  0  0  0  0  0  0  0  0
   10.5557   -9.1557   23.3876 H   0  0  0  0  0  0  0  0  0  0  0  0
    9.3617   -8.6047   22.4166 H   0  0  0  0  0  0  0  0  0  0  0  0
   11.4377   -7.4777   25.1516 H   0  0  0  0  0  0  0  0  0  0  0  0
   10.7057   -6.0257   26.8826 H   0  0  0  0  0  0  0  0  0  0  0  0
    8.5147   -5.1097   26.8176 H   0  0  0  0  0  0  0  0  0  0  0  0
    7.7867   -7.1057   23.2916 H   0  0  0  0  0  0  0  0  0  0  0  0
   10.5717    3.5223   25.2226 H   0  0  0  0  0  0  0  0  0  0  0  0
   12.9007    3.9303   24.4656 H   0  0  0  0  0  0  0  0  0  0  0  0
   13.3347    3.9573   22.1816 H   0  0  0  0  0  0  0  0  0  0  0  0
    9.4057    1.3773   15.8766 H   0  0  0  0  0  0  0  0  0  0  0  0
  1  2  2  0
  2  3  1  0
  2 45  1  0
  3  4  1  0
  4  5  1  0
  5  6  1  0
  5 43  1  0
  6  7  1  0
  6 41  1  0
  7  8  1  0
  8  9  1  0
  8 40  1  0
  9 10  1  0
  9 37  2  0
 10 11  1  0
 11 12  1  0
 12 13  1  0
 13 14  1  0
 14 15  1  0
 15 16  1  0
 16 17  1  0
 17 18  1  0
 18 19  2  0
 18 20  1  0
 20 21  2  0
 20 25  1  0
 21 22  1  0
 22 23  2  0
 23 24  1  0
 24 25  2  0
 25 26  1  0
 26 27  1  0
 27 28  2  0
 27 29  1  0
 29 30  1  0
 30 31  2  0
 30 36  1  0
 31 32  1  0
 32 33  2  0
 33 34  1  0
 34 35  1  0
 34 36  2  0
 37 38  1  0
 38 39  2  0
 39 40  1  0
 40 41  1  0
 41 42  2  0
 43 44  2  0
 43 45  1  0
  3 49  1  0
  3 50  1  0
  4 51  1  0
  4 52  1  0
  5 46  1  0
  7 53  1  0
  7 54  1  0
  8 47  1  0
 10 55  1  0
 11 56  1  0
 11 57  1  0
 12 58  1  0
 12 59  1  0
 13 60  1  0
 13 61  1  0
 14 62  1  0
 14 63  1  0
 15 64  1  0
 15 65  1  0
 16 66  1  0
 16 67  1  0
 17 68  1  0
 21 69  1  0
 22 70  1  0
 24 71  1  0
 26 72  1  0
 29 73  1  0
 29 74  1  0
 31 75  1  0
 32 76  1  0
 33 77  1  0
 36 78  1  0
 37 79  1  0
 38 80  1  0
 39 81  1  0
 40 48  1  0
 45 82  1  0
M  END
>  <BioMolTech Lead Finder dG>
-9.89

>  <BioMolTech Lead Finder VSscore>
-16.941

>  <BioMolTech Lead Finder Rank score>
-5.791

>  <BioMolTech Lead Finder LE>
-0.22

>  <BioMolTech Lead Finder Structure Name>
C:\Users\Odara\AppData\Local\Temp\LeadFinder_15756_1\Ligand_1.sdf

>  <BioMolTech Lead Finder SDF id>
0

>  <BioMolTech Lead Finder Pose rank>
0

>  <BioMolTech Lead Finder version>
2001 1, 19 January 2019

>  <LF dG>
-9.89

>  <LF VSscore>
-16.941

>  <LF Rank Score>
-5.791

>  <LF LE>
-0.22

>  <Preferred Pose_cresset>
true

>  <Favorite_cresset>
false

>  <Protein_cresset>
6Y2F_P | 5 A | With water

>  <MW_cresset>
633.1

>  <#Atoms_cresset>
45

>  <SlogP_cresset>
2.9

>  <TPSA_cresset>
149.6

>  <Flexibility_cresset>
10.4

>  <#RB_cresset>
13

>  <Rof5_cresset>
2

>  <Filename_cresset>
DAR-DIA-9e4459de-1.mol

>  <Confs_cresset>
0

>  <Poses_cresset>
10

>  <_cresset_fieldpoints>
    -5       8.306658      -2.614744      15.276562     -8.8265
    -5      13.957659       3.902256      19.693562    -14.6800
    -5      11.262658       5.987255      23.188560     -5.5965
    -5      12.024658       3.795255      18.014561    -14.9370
    -5      13.988658      -7.200745      21.634562     -8.7370
    -5       8.040658      -3.241745      19.505562     -2.2505
    -5      14.119658      -7.050744      17.224562     -6.7235
    -6       6.898658       1.177256      21.965561     10.8835
    -6       7.894658      -7.462745      21.090561     12.5910
    -6      12.920658      -1.440744      18.029562      4.9940
    -6       6.751658      -2.625744      24.209560      6.1225
    -6       9.831658      -3.834744      28.211561      5.4275
    -6       8.487659       2.392256      14.464561      2.8440
    -7      12.307658       0.070256      15.951561     -2.0745
    -7       6.613658      -2.606744      24.233561     -2.6850
    -7       7.748658      -1.133744      21.528561     -3.2645
    -7       7.458658       1.895256      18.279562     -2.3840
    -7       7.804658      -5.192744      21.404562     -3.4065
    -7       8.257658      -4.134745      18.874561     -2.3525
    -7      11.941658      -1.043744      21.398561     -4.3365
    -7      12.216659       1.694256      26.329561     -2.2380
    -7      13.309658      -1.259744      17.978561     -2.2420
    -7      12.917658      -5.503744      23.306561     -3.4965
    -7       9.714659      -9.127745      19.792561     -2.0995
    -7      13.192658      -8.958744      24.186562     -1.8795
    -7       6.930658      -2.680744      26.012562     -2.9060
    -7       8.140658      -9.213744      26.575562     -1.8690
    -7       9.353659       4.188255      19.078562     -2.5585
    -7       8.379658       4.594255      22.318562     -2.3680
    -7      12.812658       0.658256      23.992561     -3.1695
    -8      11.784658      -5.127745      19.515562      5.3770
    -8      10.137658      -0.224744      18.277561      5.5965
    -8       9.887658      -1.390744      24.753561      6.3470
    -8      11.257658       3.056256      22.900560      7.0725
    -8       9.249659      -6.553744      25.076561      7.2415
    -8       9.284658       0.092256      25.211561      5.6350

$$$$
W_Site1_DAR_D
  xed2sdf_05210316543D
 
 82 86  0  0  1  0  0  0  0  0999 V2000
   15.1663   -5.6484   31.3051 O   0  0  0  0  0  0  0  0  0  0  0  0
   14.3443   -6.4814   30.9641 C   0  0  0  0  0  0  0  0  0  0  0  0
   14.7373   -7.9124   30.6761 C   0  0  0  0  0  0  0  0  0  0  0  0
   13.8703   -8.5264   29.5751 C   0  0  0  0  0  0  0  0  0  0  0  0
   12.4293   -8.4354   30.0841 C   0  0  0  0  0  0  0  0  0  0  0  0
   11.5553   -9.0554   29.0771 N   0  0  0  0  0  0  0  0  0  0  0  0
   11.7803   -8.9034   27.6301 C   0  0  0  0  0  0  0  0  0  0  0  0
   11.0343  -10.2024   27.2711 C   0  0  0  0  0  0  0  0  0  0  0  0
   10.6823  -10.6234   25.8581 C   0  0  0  0  0  0  0  0  0  0  0  0
   11.3813   -9.9634   24.8861 N   0  0  0  0  0  0  0  0  0  0  0  0
   10.7023   -9.0024   24.0041 C   0  0  0  0  0  0  0  0  0  0  0  0
   10.9193   -7.5834   24.5511 C   0  0  0  0  0  0  0  0  0  0  0  0
    9.5613   -6.8814   24.7001 C   0  0  0  0  0  0  0  0  0  0  0  0
    9.7593   -5.4764   25.2861 C   0  0  0  0  0  0  0  0  0  0  0  0
    8.4073   -4.7504   25.2591 C   0  0  0  0  0  0  0  0  0  0  0  0
    8.1703   -4.1124   23.8831 C   0  0  0  0  0  0  0  0  0  0  0  0
    8.0653   -2.6654   24.1131 N   0  0  0  0  0  0  0  0  0  0  0  0
    8.9863   -1.8244   23.5951 C   0  0  0  0  0  0  0  0  0  0  0  0
   10.0023   -2.2034   23.0151 O   0  0  0  0  0  0  0  0  0  0  0  0
    8.7763   -0.3574   23.6951 C   0  0  0  0  0  0  0  0  0  0  0  0
    7.9973    0.1446   24.7171 C   0  0  0  0  0  0  0  0  0  0  0  0
    7.7453    1.4886   24.8071 C   0  0  0  0  0  0  0  0  0  0  0  0
    8.2183    2.3986   23.9331 N   0  0  0  0  0  0  0  0  0  0  0  0
    8.9823    1.9046   22.9441 C   0  0  0  0  0  0  0  0  0  0  0  0
    9.2953    0.5656   22.7901 C   0  0  0  0  0  0  0  0  0  0  0  0
   10.1213    0.1806   21.7271 N   0  0  0  0  0  0  0  0  0  0  0  0
   11.2773    0.7646   21.3541 C   0  0  0  0  0  0  0  0  0  0  0  0
   11.7843    1.7266   21.9111 O   0  0  0  0  0  0  0  0  0  0  0  0
   11.9183    0.1086   20.1491 C   0  0  0  0  0  0  0  0  0  0  0  0
   11.0153    0.2586   18.9381 C   0  0  0  0  0  0  0  0  0  0  0  0
   10.5973    1.5106   18.5441 C   0  0  0  0  0  0  0  0  0  0  0  0
    9.7753    1.6536   17.4501 C   0  0  0  0  0  0  0  0  0  0  0  0
    9.3673    0.5436   16.7471 C   0  0  0  0  0  0  0  0  0  0  0  0
    9.7823   -0.7094   17.1391 C   0  0  0  0  0  0  0  0  0  0  0  0
    9.2683   -2.1124   16.2501 Cl  0  0  0  0  0  0  0  0  0  0  0  0
   10.6053   -0.8514   18.2351 C   0  0  0  0  0  0  0  0  0  0  0  0
    9.7463  -11.5724   25.6901 C   0  0  0  0  0  0  0  0  0  0  0  0
    9.0743  -12.1534   26.8541 C   0  0  0  0  0  0  0  0  0  0  0  0
    9.0823  -11.5014   28.0151 C   0  0  0  0  0  0  0  0  0  0  0  0
    9.7873  -10.1774   28.1581 C   0  0  0  0  0  0  0  0  0  0  0  0
   10.4783   -9.7744   29.4281 C   0  0  0  0  0  0  0  0  0  0  0  0
   10.1203  -10.0504   30.5641 O   0  0  0  0  0  0  0  0  0  0  0  0
   12.0283   -7.0094   30.4001 C   0  0  0  0  0  0  0  0  0  0  0  0
   10.8763   -6.6284   30.2781 O   0  0  0  0  0  0  0  0  0  0  0  0
   13.0303   -6.2004   30.8131 N   0  0  0  0  0  0  0  0  0  0  0  0
   12.3423   -8.9284   30.9501 H   0  0  0  0  0  0  0  0  0  0  0  0
   11.7233  -10.9124   27.4161 H   0  0  0  0  0  0  0  0  0  0  0  0
    9.0073   -9.5734   27.9931 H   0  0  0  0  0  0  0  0  0  0  0  0
   14.6353   -8.4534   31.5111 H   0  0  0  0  0  0  0  0  0  0  0  0
   15.6873   -7.9184   30.3621 H   0  0  0  0  0  0  0  0  0  0  0  0
   14.1273   -9.4794   29.4161 H   0  0  0  0  0  0  0  0  0  0  0  0
   13.9843   -8.0464   28.7051 H   0  0  0  0  0  0  0  0  0  0  0  0
   12.7473   -8.9174   27.3761 H   0  0  0  0  0  0  0  0  0  0  0  0
   11.4873   -8.0534   27.1921 H   0  0  0  0  0  0  0  0  0  0  0  0
   12.1103  -10.3434   24.5731 H   0  0  0  0  0  0  0  0  0  0  0  0
    9.7243   -9.2064   23.9731 H   0  0  0  0  0  0  0  0  0  0  0  0
   11.0783   -9.0684   23.0801 H   0  0  0  0  0  0  0  0  0  0  0  0
   11.4973   -7.0654   23.9201 H   0  0  0  0  0  0  0  0  0  0  0  0
   11.3693   -7.6334   25.4421 H   0  0  0  0  0  0  0  0  0  0  0  0
    8.9763   -7.4174   25.3091 H   0  0  0  0  0  0  0  0  0  0  0  0
    9.1313   -6.8044   23.8011 H   0  0  0  0  0  0  0  0  0  0  0  0
   10.4273   -4.9714   24.7391 H   0  0  0  0  0  0  0  0  0  0  0  0
   10.0983   -5.5374   26.2241 H   0  0  0  0  0  0  0  0  0  0  0  0
    8.4003   -4.0374   25.9611 H   0  0  0  0  0  0  0  0  0  0  0  0
    7.6803   -5.4124   25.4391 H   0  0  0  0  0  0  0  0  0  0  0  0
    7.3253   -4.4634   23.4781 H   0  0  0  0  0  0  0  0  0  0  0  0
    8.9133   -4.3264   23.2501 H   0  0  0  0  0  0  0  0  0  0  0  0
    7.3823   -2.3484   24.5691 H   0  0  0  0  0  0  0  0  0  0  0  0
    7.6123   -0.4774   25.3991 H   0  0  0  0  0  0  0  0  0  0  0  0
    7.1783    1.8136   25.5641 H   0  0  0  0  0  0  0  0  0  0  0  0
    9.3503    2.5486   22.2741 H   0  0  0  0  0  0  0  0  0  0  0  0
    9.8223   -0.4804   21.2271 H   0  0  0  0  0  0  0  0  0  0  0  0
   12.0663   -0.8614   20.3381 H   0  0  0  0  0  0  0  0  0  0  0  0
   12.7943    0.5516   19.9611 H   0  0  0  0  0  0  0  0  0  0  0  0
   10.8923    2.3186   19.0551 H   0  0  0  0  0  0  0  0  0  0  0  0
    9.4733    2.5636   17.1671 H   0  0  0  0  0  0  0  0  0  0  0  0
    8.7703    0.6466   15.9521 H   0  0  0  0  0  0  0  0  0  0  0  0
   10.9043   -1.7614   18.5201 H   0  0  0  0  0  0  0  0  0  0  0  0
    9.5073  -11.8814   24.7701 H   0  0  0  0  0  0  0  0  0  0  0  0
    8.6113  -13.0364   26.7771 H   0  0  0  0  0  0  0  0  0  0  0  0
    8.6123  -11.8964   28.8041 H   0  0  0  0  0  0  0  0  0  0  0  0
   12.7953   -5.3734   31.0001 H   0  0  0  0  0  0  0  0  0  0  0  0
  1  2  2  0
  2  3  1  0
  2 45  1  0
  3  4  1  0
  4  5  1  0
  5  6  1  0
  5 43  1  0
  6  7  1  0
  6 41  1  0
  7  8  1  0
  8  9  1  0
  8 40  1  0
  9 10  1  0
  9 37  2  0
 10 11  1  0
 11 12  1  0
 12 13  1  0
 13 14  1  0
 14 15  1  0
 15 16  1  0
 16 17  1  0
 17 18  1  0
 18 19  2  0
 18 20  1  0
 20 21  2  0
 20 25  1  0
 21 22  1  0
 22 23  2  0
 23 24  1  0
 24 25  2  0
 25 26  1  0
 26 27  1  0
 27 28  2  0
 27 29  1  0
 29 30  1  0
 30 31  2  0
 30 36  1  0
 31 32  1  0
 32 33  2  0
 33 34  1  0
 34 35  1  0
 34 36  2  0
 37 38  1  0
 38 39  2  0
 39 40  1  0
 40 41  1  0
 41 42  2  0
 43 44  2  0
 43 45  1  0
  3 49  1  0
  3 50  1  0
  4 51  1  0
  4 52  1  0
  5 46  1  0
  7 53  1  0
  7 54  1  0
  8 47  1  0
 10 55  1  0
 11 56  1  0
 11 57  1  0
 12 58  1  0
 12 59  1  0
 13 60  1  0
 13 61  1  0
 14 62  1  0
 14 63  1  0
 15 64  1  0
 15 65  1  0
 16 66  1  0
 16 67  1  0
 17 68  1  0
 21 69  1  0
 22 70  1  0
 24 71  1  0
 26 72  1  0
 29 73  1  0
 29 74  1  0
 31 75  1  0
 32 76  1  0
 33 77  1  0
 36 78  1  0
 37 79  1  0
 38 80  1  0
 39 81  1  0
 40 48  1  0
 45 82  1  0
M  END
>  <BioMolTech Lead Finder dG>
-8.493

>  <BioMolTech Lead Finder VSscore>
-10.184

>  <BioMolTech Lead Finder Rank score>
-3.446

>  <BioMolTech Lead Finder LE>
-0.189

>  <BioMolTech Lead Finder Structure Name>
C:\Users\Odara\AppData\Local\Temp\LeadFinder_8960_1\Ligand_1.sdf

>  <BioMolTech Lead Finder SDF id>
0

>  <BioMolTech Lead Finder Pose rank>
0

>  <BioMolTech Lead Finder version>
2001 1, 19 January 2019

>  <LF dG>
-8.493

>  <LF VSscore>
-10.184

>  <LF Rank Score>
-3.446

>  <LF LE>
-0.189

>  <Preferred Pose_cresset>
true

>  <Favorite_cresset>
false

>  <Protein_cresset>
6Y2F_P | 5 A | With water

>  <MW_cresset>
633.1

>  <#Atoms_cresset>
45

>  <SlogP_cresset>
2.9

>  <TPSA_cresset>
149.6

>  <Flexibility_cresset>
10.4

>  <#RB_cresset>
13

>  <Rof5_cresset>
2

>  <Filename_cresset>
DAR-DIA-9e4459de-1.mol

>  <Confs_cresset>
0

>  <Poses_cresset>
10

>  <_cresset_fieldpoints>
    -5      11.821256       2.549612      23.550072    -11.3100
    -5       8.681255     -10.834389      31.110073    -13.1930
    -5       9.351255      -7.602388      30.266073    -12.1630
    -5      13.270256       2.702611      21.894073    -10.1485
    -5      16.918255      -5.565389      31.672073     -7.8025
    -5      11.700255      -1.225389      23.213072     -8.8340
    -5       8.300256       4.323611      24.302073     -7.6240
    -5      12.500256       0.786612      16.009071     -2.8550
    -5       7.850255       1.387611      19.964073     -2.9295
    -5       7.135256     -10.529388      26.428072     -4.5450
    -6      12.303255      -3.491389      31.195072      3.5525
    -6      13.122255      -8.380388      33.105072      3.4855
    -6       7.127255      -6.644388      22.484074      4.1465
    -6      10.071256      -7.306388      21.439072      3.9915
    -6      12.242255      -3.074389      19.553074      4.2870
    -6       5.992256      -1.856389      25.900072      8.4180
    -6       8.813255      -2.041389      20.490072      5.5480
    -6       7.989256       2.856612      15.200072      2.6870
    -6      13.927256     -10.209389      25.460073      9.6655
    -7      12.684256      -7.481389      33.301071     -2.0035
    -7       9.427256      -6.900389      28.315073     -3.7315
    -7      13.926256      -8.617389      25.159073     -2.3905
    -7      14.321256      -3.480388      31.834072     -1.0110
    -7      16.832256      -6.649388      32.813072     -1.1365
    -7      14.103255     -10.722388      26.184072     -2.0940
    -7      12.398255      -5.755388      27.746073     -3.1450
    -7      14.331256     -10.917389      27.126072     -2.0500
    -7      12.539255     -12.858389      25.784073     -1.8370
    -7      11.214255     -12.012388      22.872072     -1.6925
    -7       7.677256      -9.517388      25.699072     -3.2075
    -7      11.290256      -4.400389      22.429073     -2.3910
    -7       6.506256      -7.117389      23.715073     -1.8655
    -7      10.450255      -2.290389      26.039072     -2.6445
    -7      11.071256       3.787612      20.972073     -2.2655
    -7       7.706256       0.159612      19.939072     -3.1840
    -7      12.199256      -1.167388      23.339073     -2.5150
    -7      12.597256       3.417612      20.467072     -1.9635
    -7       7.778255       3.013611      15.056072     -0.9780
    -7       9.353255      -2.816389      20.691072     -3.0830
    -7      12.904256       0.577611      16.089073     -1.8670
    -7       7.656256     -10.110388      30.591072     -1.5610
    -7      12.658256     -11.704389      29.754072     -2.7060
    -8      13.689256      -8.120388      30.305073      5.5885
    -8       9.924255     -11.001389      27.034073      7.0735
    -8      10.188255      -6.585388      24.882072      5.8085
    -8      10.212255      -7.761389      24.400072      5.6125
    -8       9.051255      -5.607388      24.789072      5.9500
    -8       8.546255       0.585611      23.836073      5.3695
    -8      10.192256       0.399611      17.849073      7.1935
    -8       9.717256      -0.891388      17.024073      5.6085

$$$$
Site1_Disulfiram_D
  xed2sdf_05210316543D
 
 36 35  0  0  0  0  0  0  0  0999 V2000
    9.1349   -0.4600   22.5593 S   0  0  0  0  0  0  0  0  0  0  0  0
    9.4709    0.4610   20.7823 S   0  0  0  0  0  0  0  0  0  0  0  0
    9.5299    2.3980   23.4143 S   0  0  0  0  0  0  0  0  0  0  0  0
   10.1139   -2.4310   20.2943 S   0  0  0  0  0  0  0  0  0  0  0  0
    7.8949    0.6200   24.6583 N   0  0  0  0  0  0  0  0  0  0  0  0
    9.5719   -0.6410   18.3343 N   0  0  0  0  0  0  0  0  0  0  0  0
    8.2499   -0.3560   25.7013 C   0  0  0  0  0  0  0  0  0  0  0  0
    6.8509    1.6000   24.9993 C   0  0  0  0  0  0  0  0  0  0  0  0
    9.7339   -1.7270   17.3513 C   0  0  0  0  0  0  0  0  0  0  0  0
    8.8289    0.5510   17.8943 C   0  0  0  0  0  0  0  0  0  0  0  0
    7.4789   -1.6560   25.4263 C   0  0  0  0  0  0  0  0  0  0  0  0
    5.5419    1.3030   24.2483 C   0  0  0  0  0  0  0  0  0  0  0  0
   11.1639   -1.7090   16.7883 C   0  0  0  0  0  0  0  0  0  0  0  0
    9.7329    1.5270   17.1243 C   0  0  0  0  0  0  0  0  0  0  0  0
    8.7709    0.8710   23.6413 C   0  0  0  0  0  0  0  0  0  0  0  0
    9.7129   -0.8780   19.6743 C   0  0  0  0  0  0  0  0  0  0  0  0
    8.0029    0.0030   26.6013 H   0  0  0  0  0  0  0  0  0  0  0  0
    9.2339   -0.5320   25.6883 H   0  0  0  0  0  0  0  0  0  0  0  0
    7.1689    2.5160   24.7553 H   0  0  0  0  0  0  0  0  0  0  0  0
    6.6699    1.5420   25.9813 H   0  0  0  0  0  0  0  0  0  0  0  0
    9.0799   -1.6030   16.6053 H   0  0  0  0  0  0  0  0  0  0  0  0
    9.5669   -2.6060   17.7983 H   0  0  0  0  0  0  0  0  0  0  0  0
    8.4539    1.0160   18.6963 H   0  0  0  0  0  0  0  0  0  0  0  0
    8.0949    0.2550   17.2833 H   0  0  0  0  0  0  0  0  0  0  0  0
    6.9179   -1.5350   24.6063 H   0  0  0  0  0  0  0  0  0  0  0  0
    8.1229   -2.4080   25.2853 H   0  0  0  0  0  0  0  0  0  0  0  0
    6.8929   -1.8710   26.2073 H   0  0  0  0  0  0  0  0  0  0  0  0
    5.6719    0.4940   23.6753 H   0  0  0  0  0  0  0  0  0  0  0  0
    4.8059    1.1360   24.9043 H   0  0  0  0  0  0  0  0  0  0  0  0
    5.2969    2.0860   23.6763 H   0  0  0  0  0  0  0  0  0  0  0  0
   11.6729   -0.9610   17.2153 H   0  0  0  0  0  0  0  0  0  0  0  0
   11.6159   -2.5790   16.9863 H   0  0  0  0  0  0  0  0  0  0  0  0
   11.1349   -1.5750   15.7983 H   0  0  0  0  0  0  0  0  0  0  0  0
   10.6569    1.1470   17.0773 H   0  0  0  0  0  0  0  0  0  0  0  0
    9.3759    1.6590   16.1993 H   0  0  0  0  0  0  0  0  0  0  0  0
    9.7539    2.4090   17.5933 H   0  0  0  0  0  0  0  0  0  0  0  0
  1  2  1  0
  1 15  1  0
  2 16  1  0
  3 15  2  0
  4 16  2  0
  5  7  1  0
  5  8  1  0
  5 15  1  0
  6  9  1  0
  6 10  1  0
  6 16  1  0
  7 11  1  0
  8 12  1  0
  9 13  1  0
 10 14  1  0
  7 17  1  0
  7 18  1  0
  8 19  1  0
  8 20  1  0
  9 21  1  0
  9 22  1  0
 10 23  1  0
 10 24  1  0
 11 25  1  0
 11 26  1  0
 11 27  1  0
 12 28  1  0
 12 29  1  0
 12 30  1  0
 13 31  1  0
 13 32  1  0
 13 33  1  0
 14 34  1  0
 14 35  1  0
 14 36  1  0
M  END
>  <BioMolTech Lead Finder dG>
-7.253

>  <BioMolTech Lead Finder VSscore>
-6.799

>  <BioMolTech Lead Finder Rank score>
-3.756

>  <BioMolTech Lead Finder LE>
-0.453

>  <BioMolTech Lead Finder Structure Name>
C:\Users\Odara\AppData\Local\Temp\LeadFinder_13732_1\Ligand_1.sdf

>  <BioMolTech Lead Finder SDF id>
0

>  <BioMolTech Lead Finder Pose rank>
0

>  <BioMolTech Lead Finder version>
2001 1, 19 January 2019

>  <PUBCHEM_COMPOUND_CID>
3117

>  <PUBCHEM_COMPOUND_CANONICALIZED>
1

>  <PUBCHEM_CACTVS_COMPLEXITY>
201

>  <PUBCHEM_CACTVS_HBOND_ACCEPTOR>
4

>  <PUBCHEM_CACTVS_HBOND_DONOR>
0

>  <PUBCHEM_CACTVS_ROTATABLE_BOND>
7

>  <PUBCHEM_CACTVS_SUBSKEYS>
AAADceBzAABwAAAAAAAAAAAAAAAAAAAAAAAAAAAAAAAAAAAAAAAAHAQAAAAAAADBAAQCAAMAAAAEAAAAAAAAAAAAAAgAAAAIAAAAAAAAAAAAAAAAAACAAAAAAAAAAAAAAAAAAAAAAAAAAAAAAAAAAAAAAA==

>  <PUBCHEM_IUPAC_OPENEYE_NAME>
diethylcarbamothioylsulfanyl N,N-diethylcarbamodithioate

>  <PUBCHEM_IUPAC_CAS_NAME>
N,N-diethylcarbamodithioic acid [[diethylamino(sulfanylidene)methyl]thio] ester

>  <PUBCHEM_IUPAC_NAME_MARKUP>
diethylcarbamothioylsulfanyl <I>N</I>,<I>N</I>-diethylcarbamodithioate

>  <PUBCHEM_IUPAC_NAME>
diethylcarbamothioylsulfanyl N,N-diethylcarbamodithioate

>  <PUBCHEM_IUPAC_SYSTEMATIC_NAME>
diethylcarbamothioylsulfanyl N,N-diethylcarbamodithioate

>  <PUBCHEM_IUPAC_TRADITIONAL_NAME>
N,N-diethylcarbamodithioic acid (diethylthiocarbamoylthio) ester

>  <PUBCHEM_IUPAC_INCHI>
InChI=1S/C10H20N2S4/c1-5-11(6-2)9(13)15-16-10(14)12(7-3)8-4/h5-8H2,1-4H3

>  <PUBCHEM_IUPAC_INCHIKEY>
AUZONCFQVSMFAP-UHFFFAOYSA-N

>  <PUBCHEM_XLOGP3>
3.9

>  <PUBCHEM_EXACT_MASS>
296.050933

>  <PUBCHEM_MOLECULAR_FORMULA>
C10H20N2S4

>  <PUBCHEM_MOLECULAR_WEIGHT>
296.5

>  <PUBCHEM_OPENEYE_CAN_SMILES>
CCN(CC)C(=S)SSC(=S)N(CC)CC

>  <PUBCHEM_OPENEYE_ISO_SMILES>
CCN(CC)C(=S)SSC(=S)N(CC)CC

>  <PUBCHEM_CACTVS_TPSA>
121

>  <PUBCHEM_MONOISOTOPIC_WEIGHT>
296.050933

>  <PUBCHEM_TOTAL_CHARGE>
0

>  <PUBCHEM_HEAVY_ATOM_COUNT>
16

>  <PUBCHEM_ATOM_DEF_STEREO_COUNT>
0

>  <PUBCHEM_ATOM_UDEF_STEREO_COUNT>
0

>  <PUBCHEM_BOND_DEF_STEREO_COUNT>
0

>  <PUBCHEM_BOND_UDEF_STEREO_COUNT>
0

>  <PUBCHEM_ISOTOPIC_ATOM_COUNT>
0

>  <PUBCHEM_COMPONENT_COUNT>
1

>  <PUBCHEM_CACTVS_TAUTO_COUNT>
-1

>  <PUBCHEM_COORDINATE_TYPE>
1
5
255

>  <LF dG>
-7.253

>  <LF VSscore>
-6.799

>  <LF Rank Score>
-3.756

>  <LF LE>
-0.453

>  <Preferred Pose_cresset>
true

>  <Favorite_cresset>
false

>  <Protein_cresset>
6Y2F_P | 6 A | No water

>  <MW_cresset>
296.5

>  <#Atoms_cresset>
16

>  <SlogP_cresset>
3.6

>  <TPSA_cresset>
6.5

>  <Flexibility_cresset>
7.5

>  <#RB_cresset>
9

>  <Rof5_cresset>
0

>  <Filename_cresset>
Disulfiram.sdf

>  <Confs_cresset>
0

>  <Poses_cresset>
10

>  <_cresset_fieldpoints>
    -5      10.746938      -3.253002      22.721317     -4.5890
    -5      11.469938       2.835998      21.680317     -4.7640
    -6       5.722938       0.091998      27.559317      3.2190
    -6       6.389938       0.654998      19.784317      2.0910
    -6       6.349938       0.876998      21.146317      1.9435
    -6       8.279938      -0.276002      14.872316      3.2005
    -7      11.559938       0.061998      24.623316     -2.0155
    -7      12.242938       0.540998      19.174316     -2.7265
    -7      10.669938      -2.493002      24.418316     -1.8135
    -7       6.871938      -1.305002      19.895317     -2.5640
    -7      12.332938      -0.474002      21.816317     -1.9465
    -7       6.861938       2.031998      21.434317     -2.8135
    -7      12.178938       0.475998      22.576317     -1.9105
    -7       8.768938       3.417998      20.004316     -1.9370
    -7       5.159938      -0.174002      27.303316     -1.9015
    -7       9.508938       2.423998      26.655315     -1.9665
    -7       9.195938      -0.244002      14.378317     -1.8330
    -7       6.238938      -1.244002      21.911316     -2.2955
    -7       9.891938      -3.351002      23.585316     -1.7910
    -7      10.938938      -4.840002      18.216316     -1.4765
    -8       9.240938       0.552998      22.151316      5.6065
    -8       9.490938      -0.621002      21.169317      5.6795
    -8       5.938938       1.646998      24.674316      4.4090
    -8       7.911938      -1.259002      25.769316      4.4010
    -8       9.158938       1.305998      17.390316      4.4310
    -8      10.535938      -1.945002      16.854317      4.4170

$$$$
W_Site1_Disulfiram_D
  xed2sdf_05210316543D
 
 36 35  0  0  0  0  0  0  0  0999 V2000
    8.9911   -0.3721   22.3032 S   0  0  0  0  0  0  0  0  0  0  0  0
    9.6511    0.5189   20.6032 S   0  0  0  0  0  0  0  0  0  0  0  0
    9.9001    2.3479   23.2082 S   0  0  0  0  0  0  0  0  0  0  0  0
   10.3231   -2.3701   20.1062 S   0  0  0  0  0  0  0  0  0  0  0  0
    8.1111    0.7959   24.5392 N   0  0  0  0  0  0  0  0  0  0  0  0
    9.6771   -0.5791   18.1682 N   0  0  0  0  0  0  0  0  0  0  0  0
    7.1561    1.8529   24.9162 C   0  0  0  0  0  0  0  0  0  0  0  0
    8.4681   -0.1631   25.5962 C   0  0  0  0  0  0  0  0  0  0  0  0
    8.9851    0.6419   17.7232 C   0  0  0  0  0  0  0  0  0  0  0  0
    9.7251   -1.6901   17.2042 C   0  0  0  0  0  0  0  0  0  0  0  0
    5.7851    1.6489   24.2492 C   0  0  0  0  0  0  0  0  0  0  0  0
    7.4881   -1.3471   25.5872 C   0  0  0  0  0  0  0  0  0  0  0  0
    9.9691    1.6609   17.1232 C   0  0  0  0  0  0  0  0  0  0  0  0
   11.1041   -1.7251   16.5262 C   0  0  0  0  0  0  0  0  0  0  0  0
    8.9301    0.9489   23.4552 C   0  0  0  0  0  0  0  0  0  0  0  0
    9.8651   -0.8271   19.4992 C   0  0  0  0  0  0  0  0  0  0  0  0
    7.5251    2.7399   24.6382 H   0  0  0  0  0  0  0  0  0  0  0  0
    7.0271    1.8149   25.9072 H   0  0  0  0  0  0  0  0  0  0  0  0
    8.4321    0.2929   26.4852 H   0  0  0  0  0  0  0  0  0  0  0  0
    9.3931   -0.5041   25.4302 H   0  0  0  0  0  0  0  0  0  0  0  0
    8.5201    1.0569   18.5052 H   0  0  0  0  0  0  0  0  0  0  0  0
    8.3261    0.3889   17.0152 H   0  0  0  0  0  0  0  0  0  0  0  0
    9.0141   -1.5641   16.5122 H   0  0  0  0  0  0  0  0  0  0  0  0
    9.5711   -2.5541   17.6852 H   0  0  0  0  0  0  0  0  0  0  0  0
    5.8181    0.8249   23.6832 H   0  0  0  0  0  0  0  0  0  0  0  0
    5.0801    1.5469   24.9512 H   0  0  0  0  0  0  0  0  0  0  0  0
    5.5661    2.4409   23.6802 H   0  0  0  0  0  0  0  0  0  0  0  0
    6.8151   -1.2071   24.8602 H   0  0  0  0  0  0  0  0  0  0  0  0
    7.9871   -2.1981   25.4252 H   0  0  0  0  0  0  0  0  0  0  0  0
    7.0231   -1.4051   26.4712 H   0  0  0  0  0  0  0  0  0  0  0  0
   10.8931    1.2799   17.1572 H   0  0  0  0  0  0  0  0  0  0  0  0
    9.7191    1.8529   16.1742 H   0  0  0  0  0  0  0  0  0  0  0  0
    9.9341    2.5119   17.6472 H   0  0  0  0  0  0  0  0  0  0  0  0
   11.6651   -0.9831   16.8912 H   0  0  0  0  0  0  0  0  0  0  0  0
   11.5471   -2.6031   16.7072 H   0  0  0  0  0  0  0  0  0  0  0  0
   10.9961   -1.6131   15.5382 H   0  0  0  0  0  0  0  0  0  0  0  0
  1  2  1  0
  1 15  1  0
  2 16  1  0
  3 15  2  0
  4 16  2  0
  5  7  1  0
  5  8  1  0
  5 15  1  0
  6  9  1  0
  6 10  1  0
  6 16  1  0
  7 11  1  0
  8 12  1  0
  9 13  1  0
 10 14  1  0
  7 17  1  0
  7 18  1  0
  8 19  1  0
  8 20  1  0
  9 21  1  0
  9 22  1  0
 10 23  1  0
 10 24  1  0
 11 25  1  0
 11 26  1  0
 11 27  1  0
 12 28  1  0
 12 29  1  0
 12 30  1  0
 13 31  1  0
 13 32  1  0
 13 33  1  0
 14 34  1  0
 14 35  1  0
 14 36  1  0
M  END
>  <BioMolTech Lead Finder dG>
-8.348

>  <BioMolTech Lead Finder VSscore>
-7.633

>  <BioMolTech Lead Finder Rank score>
-4.075

>  <BioMolTech Lead Finder LE>
-0.522

>  <BioMolTech Lead Finder Structure Name>
C:\Users\Odara\AppData\Local\Temp\LeadFinder_12800_1\Ligand_1.sdf

>  <BioMolTech Lead Finder SDF id>
0

>  <BioMolTech Lead Finder Pose rank>
0

>  <BioMolTech Lead Finder version>
2001 1, 19 January 2019

>  <PUBCHEM_COMPOUND_CID>
3117

>  <PUBCHEM_COMPOUND_CANONICALIZED>
1

>  <PUBCHEM_CACTVS_COMPLEXITY>
201

>  <PUBCHEM_CACTVS_HBOND_ACCEPTOR>
4

>  <PUBCHEM_CACTVS_HBOND_DONOR>
0

>  <PUBCHEM_CACTVS_ROTATABLE_BOND>
7

>  <PUBCHEM_CACTVS_SUBSKEYS>
AAADceBzAABwAAAAAAAAAAAAAAAAAAAAAAAAAAAAAAAAAAAAAAAAHAQAAAAAAADBAAQCAAMAAAAEAAAAAAAAAAAAAAgAAAAIAAAAAAAAAAAAAAAAAACAAAAAAAAAAAAAAAAAAAAAAAAAAAAAAAAAAAAAAA==

>  <PUBCHEM_IUPAC_OPENEYE_NAME>
diethylcarbamothioylsulfanyl N,N-diethylcarbamodithioate

>  <PUBCHEM_IUPAC_CAS_NAME>
N,N-diethylcarbamodithioic acid [[diethylamino(sulfanylidene)methyl]thio] ester

>  <PUBCHEM_IUPAC_NAME_MARKUP>
diethylcarbamothioylsulfanyl <I>N</I>,<I>N</I>-diethylcarbamodithioate

>  <PUBCHEM_IUPAC_NAME>
diethylcarbamothioylsulfanyl N,N-diethylcarbamodithioate

>  <PUBCHEM_IUPAC_SYSTEMATIC_NAME>
diethylcarbamothioylsulfanyl N,N-diethylcarbamodithioate

>  <PUBCHEM_IUPAC_TRADITIONAL_NAME>
N,N-diethylcarbamodithioic acid (diethylthiocarbamoylthio) ester

>  <PUBCHEM_IUPAC_INCHI>
InChI=1S/C10H20N2S4/c1-5-11(6-2)9(13)15-16-10(14)12(7-3)8-4/h5-8H2,1-4H3

>  <PUBCHEM_IUPAC_INCHIKEY>
AUZONCFQVSMFAP-UHFFFAOYSA-N

>  <PUBCHEM_XLOGP3>
3.9

>  <PUBCHEM_EXACT_MASS>
296.050933

>  <PUBCHEM_MOLECULAR_FORMULA>
C10H20N2S4

>  <PUBCHEM_MOLECULAR_WEIGHT>
296.5

>  <PUBCHEM_OPENEYE_CAN_SMILES>
CCN(CC)C(=S)SSC(=S)N(CC)CC

>  <PUBCHEM_OPENEYE_ISO_SMILES>
CCN(CC)C(=S)SSC(=S)N(CC)CC

>  <PUBCHEM_CACTVS_TPSA>
121

>  <PUBCHEM_MONOISOTOPIC_WEIGHT>
296.050933

>  <PUBCHEM_TOTAL_CHARGE>
0

>  <PUBCHEM_HEAVY_ATOM_COUNT>
16

>  <PUBCHEM_ATOM_DEF_STEREO_COUNT>
0

>  <PUBCHEM_ATOM_UDEF_STEREO_COUNT>
0

>  <PUBCHEM_BOND_DEF_STEREO_COUNT>
0

>  <PUBCHEM_BOND_UDEF_STEREO_COUNT>
0

>  <PUBCHEM_ISOTOPIC_ATOM_COUNT>
0

>  <PUBCHEM_COMPONENT_COUNT>
1

>  <PUBCHEM_CACTVS_TAUTO_COUNT>
-1

>  <PUBCHEM_COORDINATE_TYPE>
1
5
255

>  <LF dG>
-8.348

>  <LF VSscore>
-7.633

>  <LF Rank Score>
-4.075

>  <LF LE>
-0.522

>  <Preferred Pose_cresset>
true

>  <Favorite_cresset>
false

>  <Protein_cresset>
6Y2F_P | 6 A | With water

>  <MW_cresset>
296.5

>  <#Atoms_cresset>
16

>  <SlogP_cresset>
3.6

>  <TPSA_cresset>
6.5

>  <Flexibility_cresset>
7.5

>  <#RB_cresset>
9

>  <Rof5_cresset>
0

>  <Filename_cresset>
Disulfiram.sdf

>  <Confs_cresset>
0

>  <Poses_cresset>
10

>  <_cresset_fieldpoints>
    -5      11.041097      -2.888065      22.591206     -4.6100
    -5      11.853097       2.669935      21.460207     -4.8220
    -6       6.537097       1.421934      21.155207      1.9170
    -6       6.549097       0.879934      19.736206      2.0475
    -6       6.332097       0.692934      27.804207      3.1880
    -6       8.692097      -0.107066      14.661206      3.2655
    -7      12.141096      -0.233066      22.515205     -2.1395
    -7       7.050097      -1.327066      19.543205     -2.6670
    -7      12.501097       0.247934      18.989206     -2.7450
    -7       9.906096       2.608935      26.436207     -1.9325
    -7       6.008097      -1.369066      22.409206     -2.0200
    -7       5.413096       0.450934      27.441206     -1.8340
    -7      11.662097      -0.358066      24.016207     -2.1315
    -7       8.634097       3.401935      19.992207     -1.9885
    -7       9.128097      -0.009066      14.344206     -1.9190
    -7      10.885097      -4.835065      18.001205     -1.4755
    -7       5.355097       4.201934      26.297207     -1.0610
    -7      10.305097      -2.653065      24.011206     -1.9215
    -7       9.567097      -2.028065      28.053207     -1.0520
    -7       8.924097      -1.510066      28.572206     -1.0500
    -7       7.099097       2.256935      21.358206     -2.8815
    -8       9.380096       0.650934      21.995207      5.6520
    -8       6.228097       1.959934      24.650206      4.4135
    -8       9.511097      -0.493066      21.007206      5.6180
    -8       8.013097      -0.990066      25.816206      4.4085
    -8       9.363096       1.430934      17.319206      4.4315
    -8      10.470097      -1.941066      16.644207      4.4130

$$$$
Site1_Baicalein_D
  xed2sdf_05210316543D
 
 30 32  0  0  0  0  0  0  0  0999 V2000
   10.8655    2.7134   18.4753 O   0  0  0  0  0  0  0  0  0  0  0  0
   12.1165   -1.9536   18.3243 O   0  0  0  0  0  0  0  0  0  0  0  0
   10.1715   -2.3786   16.4803 O   0  0  0  0  0  0  0  0  0  0  0  0
    8.5955   -0.2926   15.6353 O   0  0  0  0  0  0  0  0  0  0  0  0
   13.4015   -0.1416   19.8133 O   0  0  0  0  0  0  0  0  0  0  0  0
   11.5645    0.3854   18.4273 C   0  0  0  0  0  0  0  0  0  0  0  0
   10.7435    1.4384   18.0093 C   0  0  0  0  0  0  0  0  0  0  0  0
   11.9135    2.9964   19.3133 C   0  0  0  0  0  0  0  0  0  0  0  0
   11.3535   -0.9046   17.9163 C   0  0  0  0  0  0  0  0  0  0  0  0
   12.6215    0.7014   19.3693 C   0  0  0  0  0  0  0  0  0  0  0  0
   12.7795    2.0504   19.7743 C   0  0  0  0  0  0  0  0  0  0  0  0
   12.0825    4.4084   19.7263 C   0  0  0  0  0  0  0  0  0  0  0  0
    9.7545    1.1894   17.0763 C   0  0  0  0  0  0  0  0  0  0  0  0
   10.3665   -1.1226   16.9873 C   0  0  0  0  0  0  0  0  0  0  0  0
    9.5655   -0.0726   16.5603 C   0  0  0  0  0  0  0  0  0  0  0  0
   11.3225    4.9464   20.7533 C   0  0  0  0  0  0  0  0  0  0  0  0
   13.0155    5.2114   19.0893 C   0  0  0  0  0  0  0  0  0  0  0  0
   11.4925    6.2544   21.1343 C   0  0  0  0  0  0  0  0  0  0  0  0
   13.1775    6.5224   19.4673 C   0  0  0  0  0  0  0  0  0  0  0  0
   12.4185    7.0454   20.4913 C   0  0  0  0  0  0  0  0  0  0  0  0
   13.0845   -1.8266   18.0883 H   0  0  0  0  0  0  0  0  0  0  0  0
   10.1125   -2.3646   15.4753 H   0  0  0  0  0  0  0  0  0  0  0  0
    8.4375    0.5214   15.0653 H   0  0  0  0  0  0  0  0  0  0  0  0
   13.5215    2.3064   20.3943 H   0  0  0  0  0  0  0  0  0  0  0  0
    9.1665    1.9384   16.7703 H   0  0  0  0  0  0  0  0  0  0  0  0
   10.6455    4.3764   21.2203 H   0  0  0  0  0  0  0  0  0  0  0  0
   13.5735    4.8344   18.3503 H   0  0  0  0  0  0  0  0  0  0  0  0
   10.9435    6.6334   21.8793 H   0  0  0  0  0  0  0  0  0  0  0  0
   13.8485    7.0974   18.9993 H   0  0  0  0  0  0  0  0  0  0  0  0
   12.5395    7.9984   20.7663 H   0  0  0  0  0  0  0  0  0  0  0  0
  1  7  1  0
  1  8  1  0
  2  9  1  0
  3 14  1  0
  4 15  1  0
  5 10  2  0
  6  7  2  0
  6  9  1  0
  6 10  1  0
  7 13  1  0
  8 11  2  0
  8 12  1  0
  9 14  2  0
 10 11  1  0
 12 16  2  0
 12 17  1  0
 13 15  2  0
 14 15  1  0
 16 18  1  0
 17 19  2  0
 18 20  2  0
 19 20  1  0
  2 21  1  0
  3 22  1  0
  4 23  1  0
 11 24  1  0
 13 25  1  0
 16 26  1  0
 17 27  1  0
 18 28  1  0
 19 29  1  0
 20 30  1  0
M  END
>  <BioMolTech Lead Finder dG>
-6.776

>  <BioMolTech Lead Finder VSscore>
-8.278

>  <BioMolTech Lead Finder Rank score>
-11.02

>  <BioMolTech Lead Finder LE>
-0.339

>  <BioMolTech Lead Finder Structure Name>
C:\Users\Odara\AppData\Local\Temp\LeadFinder_11448_1\Ligand_1.sdf

>  <BioMolTech Lead Finder SDF id>
0

>  <BioMolTech Lead Finder Pose rank>
0

>  <BioMolTech Lead Finder version>
2001 1, 19 January 2019

>  <PUBCHEM_COMPOUND_CID>
5281605

>  <PUBCHEM_COMPOUND_CANONICALIZED>
1

>  <PUBCHEM_CACTVS_COMPLEXITY>
413

>  <PUBCHEM_CACTVS_HBOND_ACCEPTOR>
5

>  <PUBCHEM_CACTVS_HBOND_DONOR>
3

>  <PUBCHEM_CACTVS_ROTATABLE_BOND>
1

>  <PUBCHEM_CACTVS_SUBSKEYS>
AAADccBwOAAAAAAAAAAAAAAAAAAAAAAAAAAwYIAAAAAAAACBQAAAGgAACAAADASAmAAwBoAABgCIAqBSAAACCAAkIAAIiAEGiMgNJzaGNRqCeWGl4BUJuQfK7LzOIQABCAAIQABCAAIQABCAAAAAAAAAAA==

>  <PUBCHEM_IUPAC_OPENEYE_NAME>
5,6,7-trihydroxy-2-phenyl-chromen-4-one

>  <PUBCHEM_IUPAC_CAS_NAME>
5,6,7-trihydroxy-2-phenyl-1-benzopyran-4-one

>  <PUBCHEM_IUPAC_NAME_MARKUP>
5,6,7-trihydroxy-2-phenylchromen-4-one

>  <PUBCHEM_IUPAC_NAME>
5,6,7-trihydroxy-2-phenylchromen-4-one

>  <PUBCHEM_IUPAC_SYSTEMATIC_NAME>
5,6,7-tris(oxidanyl)-2-phenyl-chromen-4-one

>  <PUBCHEM_IUPAC_TRADITIONAL_NAME>
5,6,7-trihydroxy-2-phenyl-chromone

>  <PUBCHEM_IUPAC_INCHI>
InChI=1S/C15H10O5/c16-9-6-11(8-4-2-1-3-5-8)20-12-7-10(17)14(18)15(19)13(9)12/h1-7,17-19H

>  <PUBCHEM_IUPAC_INCHIKEY>
FXNFHKRTJBSTCS-UHFFFAOYSA-N

>  <PUBCHEM_XLOGP3>
1.7

>  <PUBCHEM_EXACT_MASS>
270.052823

>  <PUBCHEM_MOLECULAR_FORMULA>
C15H10O5

>  <PUBCHEM_MOLECULAR_WEIGHT>
270.24

>  <PUBCHEM_OPENEYE_CAN_SMILES>
C1=CC=C(C=C1)C2=CC(=O)C3=C(O2)C=C(C(=C3O)O)O

>  <PUBCHEM_OPENEYE_ISO_SMILES>
C1=CC=C(C=C1)C2=CC(=O)C3=C(O2)C=C(C(=C3O)O)O

>  <PUBCHEM_CACTVS_TPSA>
87

>  <PUBCHEM_MONOISOTOPIC_WEIGHT>
270.052823

>  <PUBCHEM_TOTAL_CHARGE>
0

>  <PUBCHEM_HEAVY_ATOM_COUNT>
20

>  <PUBCHEM_ATOM_DEF_STEREO_COUNT>
0

>  <PUBCHEM_ATOM_UDEF_STEREO_COUNT>
0

>  <PUBCHEM_BOND_DEF_STEREO_COUNT>
0

>  <PUBCHEM_BOND_UDEF_STEREO_COUNT>
0

>  <PUBCHEM_ISOTOPIC_ATOM_COUNT>
0

>  <PUBCHEM_COMPONENT_COUNT>
1

>  <PUBCHEM_CACTVS_TAUTO_COUNT>
-1

>  <PUBCHEM_COORDINATE_TYPE>
1
5
255

>  <PUBCHEM_BONDANNOTATIONS>
1  7  8
1  8  8
10  11  8
12  16  8
12  17  8
13  15  8
14  15  8
16  18  8
17  19  8
18  20  8
19  20  8
6  10  8
6  7  8
6  9  8
7  13  8
8  11  8
9  14  8

>  <LF dG>
-6.776

>  <LF VSscore>
-8.278

>  <LF Rank Score>
-11.02

>  <LF LE>
-0.339

>  <Preferred Pose_cresset>
true

>  <Favorite_cresset>
false

>  <Protein_cresset>
6Y2F_P | 5 A | With water

>  <MW_cresset>
270.2

>  <#Atoms_cresset>
20

>  <SlogP_cresset>
2.3

>  <TPSA_cresset>
87

>  <Flexibility_cresset>
1.7

>  <#RB_cresset>
4

>  <Rof5_cresset>
0

>  <Filename_cresset>
Baicalein.sdf

>  <Confs_cresset>
0

>  <Poses_cresset>
10

>  <_cresset_fieldpoints>
    -5      10.142486       6.568358      18.228285     -2.2525
    -5      12.716486      -1.964642      20.341286    -12.2695
    -5      14.622486      -0.298642      21.247286    -10.0540
    -5      14.282486       5.062358      22.232286     -2.4470
    -6      13.408485       3.149358      16.815285      3.8055
    -6       8.296486       2.199358      14.588285      8.4795
    -6      10.285486      -1.870642      13.743286      4.7300
    -6      15.119486       6.154358      17.057285      3.5955
    -6       9.214486       5.533358      23.038286      2.9845
    -6      11.222486       9.055358      22.525286      3.2300
    -6      14.189486       9.450358      19.532286      3.3760
    -7      13.666486       2.641358      16.884285     -2.6410
    -7       9.749486       4.663358      17.480286     -2.4475
    -7      12.324486      -3.795642      16.591286     -1.4205
    -7      12.354486      -2.208642      20.775286     -1.6795
    -7      12.881486       1.030358      15.383286     -1.8510
    -7       7.811486      -2.638642      15.299286     -1.3955
    -7       9.341486      -1.299642      13.525286     -1.3665
    -7       6.447486       1.062358      16.163286     -1.2320
    -7      14.440486       4.211358      22.062286     -2.0675
    -7      14.717485      -0.207642      17.452286     -1.7910
    -7       8.628486      -0.327642      20.065285     -1.7925
    -7      10.398486       1.088358      13.646286     -1.2115
    -7       9.008486       5.165358      23.208286     -0.9875
    -7      10.085485       1.747358      21.286285     -2.5835
    -7      15.615486       6.065358      17.117287     -0.9910
    -7      11.115486       9.221358      22.746286     -0.9675
    -7      14.318485       9.719358      19.595285     -0.9675
    -8      12.254486       5.728358      20.109285      7.1545
    -8      10.566485       0.188358      17.510286      6.6025
    -8      11.964486       1.461358      18.966286      5.0270

$$$$
W_Site1_Baicalein_D
  xed2sdf_05210316543D
 
 30 32  0  0  0  0  0  0  0  0999 V2000
    9.0969   -0.8572   20.9850 O   0  0  0  0  0  0  0  0  0  0  0  0
   11.6219    2.8348   19.1510 O   0  0  0  0  0  0  0  0  0  0  0  0
   10.4439    2.3978   16.7460 O   0  0  0  0  0  0  0  0  0  0  0  0
    8.6149    0.3698   16.4560 O   0  0  0  0  0  0  0  0  0  0  0  0
   11.7349    2.1198   21.7260 O   0  0  0  0  0  0  0  0  0  0  0  0
   10.3759    1.0268   20.1350 C   0  0  0  0  0  0  0  0  0  0  0  0
    9.4599   -0.0182   19.9750 C   0  0  0  0  0  0  0  0  0  0  0  0
    9.5739   -0.5942   22.2440 C   0  0  0  0  0  0  0  0  0  0  0  0
   10.7139    1.8288   19.0340 C   0  0  0  0  0  0  0  0  0  0  0  0
   10.9179    1.2378   21.4650 C   0  0  0  0  0  0  0  0  0  0  0  0
   10.4609    0.4038   22.5160 C   0  0  0  0  0  0  0  0  0  0  0  0
    9.0869   -1.4602   23.3420 C   0  0  0  0  0  0  0  0  0  0  0  0
    8.8839   -0.2222   18.7340 C   0  0  0  0  0  0  0  0  0  0  0  0
   10.1239    1.6068   17.8150 C   0  0  0  0  0  0  0  0  0  0  0  0
    9.2009    0.5798   17.6630 C   0  0  0  0  0  0  0  0  0  0  0  0
    8.2659   -0.9542   24.3380 C   0  0  0  0  0  0  0  0  0  0  0  0
    9.4439   -2.7992   23.3820 C   0  0  0  0  0  0  0  0  0  0  0  0
    7.8129   -1.7682   25.3480 C   0  0  0  0  0  0  0  0  0  0  0  0
    8.9949   -3.6082   24.3980 C   0  0  0  0  0  0  0  0  0  0  0  0
    8.1779   -3.0952   25.3800 C   0  0  0  0  0  0  0  0  0  0  0  0
   12.5489    2.4848   19.3100 H   0  0  0  0  0  0  0  0  0  0  0  0
    9.7829    2.2888   15.9960 H   0  0  0  0  0  0  0  0  0  0  0  0
    8.4409    1.2358   15.9740 H   0  0  0  0  0  0  0  0  0  0  0  0
   10.7879    0.5468   23.4500 H   0  0  0  0  0  0  0  0  0  0  0  0
    8.2259   -0.9662   18.6140 H   0  0  0  0  0  0  0  0  0  0  0  0
    8.0009    0.0098   24.3210 H   0  0  0  0  0  0  0  0  0  0  0  0
   10.0309   -3.1772   22.6670 H   0  0  0  0  0  0  0  0  0  0  0  0
    7.2169   -1.3962   26.0600 H   0  0  0  0  0  0  0  0  0  0  0  0
    9.2619   -4.5722   24.4230 H   0  0  0  0  0  0  0  0  0  0  0  0
    7.8499   -3.6862   26.1170 H   0  0  0  0  0  0  0  0  0  0  0  0
  1  7  1  0
  1  8  1  0
  2  9  1  0
  3 14  1  0
  4 15  1  0
  5 10  2  0
  6  7  2  0
  6  9  1  0
  6 10  1  0
  7 13  1  0
  8 11  2  0
  8 12  1  0
  9 14  2  0
 10 11  1  0
 12 16  2  0
 12 17  1  0
 13 15  2  0
 14 15  1  0
 16 18  1  0
 17 19  2  0
 18 20  2  0
 19 20  1  0
  2 21  1  0
  3 22  1  0
  4 23  1  0
 11 24  1  0
 13 25  1  0
 16 26  1  0
 17 27  1  0
 18 28  1  0
 19 29  1  0
 20 30  1  0
M  END
>  <BioMolTech Lead Finder dG>
-7.606

>  <BioMolTech Lead Finder VSscore>
-8.999

>  <BioMolTech Lead Finder Rank score>
-11.401

>  <BioMolTech Lead Finder LE>
-0.38

>  <BioMolTech Lead Finder Structure Name>
C:\Users\Odara\AppData\Local\Temp\LeadFinder_12788_1\Ligand_1.sdf

>  <BioMolTech Lead Finder SDF id>
0

>  <BioMolTech Lead Finder Pose rank>
0

>  <BioMolTech Lead Finder version>
2001 1, 19 January 2019

>  <PUBCHEM_COMPOUND_CID>
5281605

>  <PUBCHEM_COMPOUND_CANONICALIZED>
1

>  <PUBCHEM_CACTVS_COMPLEXITY>
413

>  <PUBCHEM_CACTVS_HBOND_ACCEPTOR>
5

>  <PUBCHEM_CACTVS_HBOND_DONOR>
3

>  <PUBCHEM_CACTVS_ROTATABLE_BOND>
1

>  <PUBCHEM_CACTVS_SUBSKEYS>
AAADccBwOAAAAAAAAAAAAAAAAAAAAAAAAAAwYIAAAAAAAACBQAAAGgAACAAADASAmAAwBoAABgCIAqBSAAACCAAkIAAIiAEGiMgNJzaGNRqCeWGl4BUJuQfK7LzOIQABCAAIQABCAAIQABCAAAAAAAAAAA==

>  <PUBCHEM_IUPAC_OPENEYE_NAME>
5,6,7-trihydroxy-2-phenyl-chromen-4-one

>  <PUBCHEM_IUPAC_CAS_NAME>
5,6,7-trihydroxy-2-phenyl-1-benzopyran-4-one

>  <PUBCHEM_IUPAC_NAME_MARKUP>
5,6,7-trihydroxy-2-phenylchromen-4-one

>  <PUBCHEM_IUPAC_NAME>
5,6,7-trihydroxy-2-phenylchromen-4-one

>  <PUBCHEM_IUPAC_SYSTEMATIC_NAME>
5,6,7-tris(oxidanyl)-2-phenyl-chromen-4-one

>  <PUBCHEM_IUPAC_TRADITIONAL_NAME>
5,6,7-trihydroxy-2-phenyl-chromone

>  <PUBCHEM_IUPAC_INCHI>
InChI=1S/C15H10O5/c16-9-6-11(8-4-2-1-3-5-8)20-12-7-10(17)14(18)15(19)13(9)12/h1-7,17-19H

>  <PUBCHEM_IUPAC_INCHIKEY>
FXNFHKRTJBSTCS-UHFFFAOYSA-N

>  <PUBCHEM_XLOGP3>
1.7

>  <PUBCHEM_EXACT_MASS>
270.052823

>  <PUBCHEM_MOLECULAR_FORMULA>
C15H10O5

>  <PUBCHEM_MOLECULAR_WEIGHT>
270.24

>  <PUBCHEM_OPENEYE_CAN_SMILES>
C1=CC=C(C=C1)C2=CC(=O)C3=C(O2)C=C(C(=C3O)O)O

>  <PUBCHEM_OPENEYE_ISO_SMILES>
C1=CC=C(C=C1)C2=CC(=O)C3=C(O2)C=C(C(=C3O)O)O

>  <PUBCHEM_CACTVS_TPSA>
87

>  <PUBCHEM_MONOISOTOPIC_WEIGHT>
270.052823

>  <PUBCHEM_TOTAL_CHARGE>
0

>  <PUBCHEM_HEAVY_ATOM_COUNT>
20

>  <PUBCHEM_ATOM_DEF_STEREO_COUNT>
0

>  <PUBCHEM_ATOM_UDEF_STEREO_COUNT>
0

>  <PUBCHEM_BOND_DEF_STEREO_COUNT>
0

>  <PUBCHEM_BOND_UDEF_STEREO_COUNT>
0

>  <PUBCHEM_ISOTOPIC_ATOM_COUNT>
0

>  <PUBCHEM_COMPONENT_COUNT>
1

>  <PUBCHEM_CACTVS_TAUTO_COUNT>
-1

>  <PUBCHEM_COORDINATE_TYPE>
1
5
255

>  <PUBCHEM_BONDANNOTATIONS>
1  7  8
1  8  8
10  11  8
12  16  8
12  17  8
13  15  8
14  15  8
16  18  8
17  19  8
18  20  8
19  20  8
6  10  8
6  7  8
6  9  8
7  13  8
8  11  8
9  14  8

>  <LF dG>
-7.606

>  <LF VSscore>
-8.999

>  <LF Rank Score>
-11.401

>  <LF LE>
-0.38

>  <Preferred Pose_cresset>
true

>  <Favorite_cresset>
false

>  <Protein_cresset>
6Y2F_P | 5 A | With water

>  <MW_cresset>
270.2

>  <#Atoms_cresset>
20

>  <SlogP_cresset>
2.3

>  <TPSA_cresset>
87

>  <Flexibility_cresset>
1.7

>  <#RB_cresset>
4

>  <Rof5_cresset>
0

>  <Filename_cresset>
Baicalein.sdf

>  <Confs_cresset>
0

>  <Poses_cresset>
10

>  <_cresset_fieldpoints>
    -5       6.296856      -2.889246      22.650034     -3.0145
    -5      11.697856       3.921754      20.925034    -12.3970
    -5       9.635856      -1.448246      15.642034     -2.1930
    -5      12.121856      -0.536246      16.940033     -2.4360
    -5      11.011856      -1.716246      26.094034     -2.7005
    -5      12.515856       2.907754      23.247034    -10.2835
    -6       8.456856       2.544754      14.865034     10.8925
    -6      11.367856      -2.645246      20.994034      2.5475
    -6       6.453856       0.843754      26.174034      2.8370
    -6       6.693856      -2.505246      18.392033      1.6095
    -6      10.653856      -5.614246      22.749033      2.9990
    -6      13.933856       1.389754      18.863033      1.6875
    -6       7.524856       1.574754      22.860033      1.9665
    -6       8.454856      -6.094246      26.206034      3.0480
    -6       6.376856      -2.863246      27.904034      3.0090
    -7      11.933856      -1.963246      21.104034     -2.5745
    -7      13.708856       0.795754      20.477034     -1.7575
    -7      11.014856       4.426754      21.018034     -1.6620
    -7      12.697856       3.645754      17.057034     -1.3825
    -7      10.225856       0.612754      14.497034     -1.4550
    -7       6.138856       0.686754      16.526033     -1.1965
    -7      12.266856      -1.247246      18.403034     -1.8025
    -7       7.726856       1.761754      22.253033     -2.6250
    -7       7.768856       3.446754      16.412033     -1.3750
    -7       6.931856      -2.056246      20.975033     -2.4425
    -7      10.708856      -5.760246      22.363033     -0.9905
    -7      10.118855       1.276754      25.781033     -1.4955
    -7       8.476856      -6.338246      26.354034     -0.9675
    -7      11.481855      -1.007246      25.560034     -2.0460
    -7       6.215856      -2.854246      28.145035     -0.9675
    -8       8.632856      -2.277246      24.364033      7.1545
    -8      10.176856       0.474754      21.261034      5.0255
    -8       9.785856       0.781754      18.927034      6.6025

$$$$
Site1_Baicalin_D
  xed2sdf_05210316543D
 
 49 52  0  0  1  0  0  0  0  0999 V2000
   15.1209    3.4277   19.0669 O   0  0  0  0  0  0  0  0  0  0  0  0
   12.7679    3.3997   19.6539 O   0  0  0  0  0  0  0  0  0  0  0  0
   15.0089    7.6197   18.6719 O   0  0  0  0  0  0  0  0  0  0  0  0
   12.5779    6.1327   19.0609 O   0  0  0  0  0  0  0  0  0  0  0  0
   17.2639    6.1267   17.6859 O   0  0  0  0  0  0  0  0  0  0  0  0
   17.8779    3.3047   19.6709 O   0  5  0  0  0  0  0  0  0  0  0  0
   18.0579    2.8977   17.4319 O   0  0  0  0  0  0  0  0  0  0  0  0
   11.9899   -1.1163   18.6659 O   0  0  0  0  0  0  0  0  0  0  0  0
   10.5909    4.1927   18.1199 O   0  0  0  0  0  0  0  0  0  0  0  0
    9.1169    2.2827   16.8429 O   0  0  0  0  0  0  0  0  0  0  0  0
    8.7839   -0.2273   16.3589 O   0  0  0  0  0  0  0  0  0  0  0  0
   14.9159    6.2227   18.3569 C   0  0  0  0  0  0  0  0  0  0  0  0
   13.8679    5.5337   19.2509 C   0  0  0  0  0  0  0  0  0  0  0  0
   16.2809    5.5367   18.5479 C   0  0  0  0  0  0  0  0  0  0  0  0
   13.8199    4.0347   18.8959 C   0  0  0  0  0  0  0  0  0  0  0  0
   16.1299    4.0367   18.2329 C   0  0  0  0  0  0  0  0  0  0  0  0
   17.4579    3.3627   18.4629 C   0  0  0  0  0  0  0  0  0  0  0  0
   12.0259    2.4927   19.0209 C   0  0  0  0  0  0  0  0  0  0  0  0
   12.3569    1.1587   19.1289 C   0  0  0  0  0  0  0  0  0  0  0  0
   10.9309    2.8727   18.2449 C   0  0  0  0  0  0  0  0  0  0  0  0
   11.6129    0.1807   18.4989 C   0  0  0  0  0  0  0  0  0  0  0  0
   10.5159    0.5627   17.7259 C   0  0  0  0  0  0  0  0  0  0  0  0
   10.1849    1.9167   17.6009 C   0  0  0  0  0  0  0  0  0  0  0  0
    9.7469   -0.4823   17.0819 C   0  0  0  0  0  0  0  0  0  0  0  0
   11.2099   -2.0953   18.1019 C   0  0  0  0  0  0  0  0  0  0  0  0
   10.1259   -1.8283   17.3159 C   0  0  0  0  0  0  0  0  0  0  0  0
   11.6129   -3.4953   18.3869 C   0  0  0  0  0  0  0  0  0  0  0  0
   12.3989   -4.1663   17.4619 C   0  0  0  0  0  0  0  0  0  0  0  0
   11.2449   -4.1603   19.5479 C   0  0  0  0  0  0  0  0  0  0  0  0
   12.8019   -5.4603   17.6859 C   0  0  0  0  0  0  0  0  0  0  0  0
   11.6489   -5.4543   19.7709 C   0  0  0  0  0  0  0  0  0  0  0  0
   12.4269   -6.1073   18.8409 C   0  0  0  0  0  0  0  0  0  0  0  0
   14.6349    6.1397   17.4009 H   0  0  0  0  0  0  0  0  0  0  0  0
   14.1229    5.6447   20.2119 H   0  0  0  0  0  0  0  0  0  0  0  0
   16.5839    5.6567   19.4929 H   0  0  0  0  0  0  0  0  0  0  0  0
   13.5969    3.9107   17.9289 H   0  0  0  0  0  0  0  0  0  0  0  0
   15.8449    3.9287   17.2809 H   0  0  0  0  0  0  0  0  0  0  0  0
   14.2409    8.1347   18.2769 H   0  0  0  0  0  0  0  0  0  0  0  0
   12.6559    7.0517   18.6589 H   0  0  0  0  0  0  0  0  0  0  0  0
   17.1929    5.7687   16.7489 H   0  0  0  0  0  0  0  0  0  0  0  0
   10.1119    4.5327   18.9359 H   0  0  0  0  0  0  0  0  0  0  0  0
    9.3649    2.3617   15.8709 H   0  0  0  0  0  0  0  0  0  0  0  0
   13.1509    0.8947   19.6759 H   0  0  0  0  0  0  0  0  0  0  0  0
    9.6029   -2.5763   16.9089 H   0  0  0  0  0  0  0  0  0  0  0  0
   12.6769   -3.7013   16.6219 H   0  0  0  0  0  0  0  0  0  0  0  0
   10.6799   -3.6933   20.2279 H   0  0  0  0  0  0  0  0  0  0  0  0
   13.3669   -5.9313   17.0089 H   0  0  0  0  0  0  0  0  0  0  0  0
   11.3769   -5.9233   20.6109 H   0  0  0  0  0  0  0  0  0  0  0  0
   12.7189   -7.0493   19.0049 H   0  0  0  0  0  0  0  0  0  0  0  0
  1 15  1  0
  1 16  1  0
  2 18  1  0
  6 17  1  0
  7 17  2  0
  8 21  1  0
  8 25  1  0
  9 20  1  0
 10 23  1  0
 11 24  2  0
 12  3  1  0
 12 13  1  0
 12 14  1  0
 13  4  1  0
 13 15  1  0
 14  5  1  0
 14 16  1  0
 15  2  1  0
 16 17  1  0
 18 19  2  0
 18 20  1  0
 19 21  1  0
 20 23  2  0
 21 22  2  0
 22 23  1  0
 22 24  1  0
 24 26  1  0
 25 26  2  0
 25 27  1  0
 27 28  2  0
 27 29  1  0
 28 30  1  0
 29 31  2  0
 30 32  2  0
 31 32  1  0
  3 38  1  0
  4 39  1  0
  5 40  1  0
  9 41  1  0
 10 42  1  0
 12 33  1  0
 13 34  1  0
 14 35  1  0
 15 36  1  0
 16 37  1  0
 19 43  1  0
 26 44  1  0
 28 45  1  0
 29 46  1  0
 30 47  1  0
 31 48  1  0
 32 49  1  0
M  CHG  1   6  -1
M  END
>  <BioMolTech Lead Finder dG>
-6.586

>  <BioMolTech Lead Finder VSscore>
-10.24

>  <BioMolTech Lead Finder Rank score>
-11.887

>  <BioMolTech Lead Finder LE>
-0.206

>  <BioMolTech Lead Finder Structure Name>
C:\Users\Odara\AppData\Local\Temp\LeadFinder_11316_1\Ligand_1.sdf

>  <BioMolTech Lead Finder SDF id>
0

>  <BioMolTech Lead Finder Pose rank>
0

>  <BioMolTech Lead Finder version>
2001 1, 19 January 2019

>  <PUBCHEM_COMPOUND_CID>
64982

>  <PUBCHEM_COMPOUND_CANONICALIZED>
1

>  <PUBCHEM_CACTVS_COMPLEXITY>
748

>  <PUBCHEM_CACTVS_HBOND_ACCEPTOR>
11

>  <PUBCHEM_CACTVS_HBOND_DONOR>
6

>  <PUBCHEM_CACTVS_ROTATABLE_BOND>
4

>  <PUBCHEM_CACTVS_SUBSKEYS>
AAADceB4PAAAAAAAAAAAAAAAAAAAAAAAAAA0YIEAAAAAAACBQAAAGgAACAAADBSwmAMwDoAABgCIAqDSCAICCAAkIAAIiAFGiMgdNzaGNR6ieWOl4BUPuQfK7LzOIQABCAAIQABCAAIQABCAAAAAAAAAAA==

>  <PUBCHEM_IUPAC_OPENEYE_NAME>
(2S,3S,4S,5R,6S)-6-(5,6-dihydroxy-4-oxo-2-phenyl-chromen-7-yl)oxy-3,4,5-trihydroxy-tetrahydropyran-2-carboxylic acid

>  <PUBCHEM_IUPAC_CAS_NAME>
(2S,3S,4S,5R,6S)-6-[(5,6-dihydroxy-4-oxo-2-phenyl-1-benzopyran-7-yl)oxy]-3,4,5-trihydroxy-2-oxanecarboxylic acid

>  <PUBCHEM_IUPAC_NAME_MARKUP>
(2<I>S</I>,3<I>S</I>,4<I>S</I>,5<I>R</I>,6<I>S</I>)-6-(5,6-dihydroxy-4-oxo-2-phenylchromen-7-yl)oxy-3,4,5-trihydroxyoxane-2-carboxylic acid

>  <PUBCHEM_IUPAC_NAME>
(2S,3S,4S,5R,6S)-6-(5,6-dihydroxy-4-oxo-2-phenylchromen-7-yl)oxy-3,4,5-trihydroxyoxane-2-carboxylic acid

>  <PUBCHEM_IUPAC_SYSTEMATIC_NAME>
(2S,3S,4S,5R,6S)-6-[5,6-bis(oxidanyl)-4-oxidanylidene-2-phenyl-chromen-7-yl]oxy-3,4,5-tris(oxidanyl)oxane-2-carboxylic acid

>  <PUBCHEM_IUPAC_TRADITIONAL_NAME>
(2S,3S,4S,5R,6S)-6-(5,6-dihydroxy-4-keto-2-phenyl-chromen-7-yl)oxy-3,4,5-trihydroxy-tetrahydropyran-2-carboxylic acid

>  <PUBCHEM_IUPAC_INCHI>
InChI=1S/C21H18O11/c22-9-6-10(8-4-2-1-3-5-8)30-11-7-12(14(23)15(24)13(9)11)31-21-18(27)16(25)17(26)19(32-21)20(28)29/h1-7,16-19,21,23-27H,(H,28,29)/t16-,17-,18+,19-,21+/m0/s1

>  <PUBCHEM_IUPAC_INCHIKEY>
IKIIZLYTISPENI-ZFORQUDYSA-N

>  <PUBCHEM_XLOGP3_AA>
1.1

>  <PUBCHEM_EXACT_MASS>
446.084911

>  <PUBCHEM_MOLECULAR_FORMULA>
C21H18O11

>  <PUBCHEM_MOLECULAR_WEIGHT>
446.4

>  <PUBCHEM_OPENEYE_CAN_SMILES>
C1=CC=C(C=C1)C2=CC(=O)C3=C(C(=C(C=C3O2)OC4C(C(C(C(O4)C(=O)O)O)O)O)O)O

>  <PUBCHEM_OPENEYE_ISO_SMILES>
C1=CC=C(C=C1)C2=CC(=O)C3=C(C(=C(C=C3O2)O[C@H]4[C@@H]([C@H]([C@@H]([C@H](O4)C(=O)O)O)O)O)O)O

>  <PUBCHEM_CACTVS_TPSA>
183

>  <PUBCHEM_MONOISOTOPIC_WEIGHT>
446.084911

>  <PUBCHEM_TOTAL_CHARGE>
0

>  <PUBCHEM_HEAVY_ATOM_COUNT>
32

>  <PUBCHEM_ATOM_DEF_STEREO_COUNT>
5

>  <PUBCHEM_ATOM_UDEF_STEREO_COUNT>
0

>  <PUBCHEM_BOND_DEF_STEREO_COUNT>
0

>  <PUBCHEM_BOND_UDEF_STEREO_COUNT>
0

>  <PUBCHEM_ISOTOPIC_ATOM_COUNT>
0

>  <PUBCHEM_COMPONENT_COUNT>
1

>  <PUBCHEM_CACTVS_TAUTO_COUNT>
-1

>  <PUBCHEM_COORDINATE_TYPE>
1
5
255

>  <PUBCHEM_BONDANNOTATIONS>
16  17  5
18  19  8
18  20  8
19  21  8
15  2  5
20  23  8
21  22  8
22  23  8
22  24  8
24  26  8
25  26  8
27  28  8
27  29  8
28  30  8
29  31  8
12  3  5
30  32  8
31  32  8
13  4  6
14  5  6
8  21  8
8  25  8

>  <LF dG>
-6.586

>  <LF VSscore>
-10.24

>  <LF Rank Score>
-11.887

>  <LF LE>
-0.206

>  <Preferred Pose_cresset>
true

>  <Favorite_cresset>
false

>  <Protein_cresset>
6Y2F_P | 5 A | With water

>  <MW_cresset>
445.4

>  <#Atoms_cresset>
32

>  <SlogP_cresset>
1.1

>  <TPSA_cresset>
186

>  <Flexibility_cresset>
7.6

>  <#RB_cresset>
9

>  <Rof5_cresset>
1

>  <Filename_cresset>
Baicalin.sdf

>  <Confs_cresset>
0

>  <Poses_cresset>
10

>  <_cresset_fieldpoints>
    -5      19.617929       2.191715      18.209898     -9.9605
    -5      11.514929       5.506715      20.566898     -7.2980
    -5      17.194929       8.043715      18.367899    -11.2375
    -5      19.489929       2.460715      19.617899    -10.7135
    -5      14.375929      -3.497285      19.933899     -4.5350
    -5      13.913929      -2.119285      19.710899     -4.4945
    -5       7.436929       1.147715      16.643898    -13.2450
    -5       7.358929      -1.171285      15.580898    -11.0695
    -5      16.404930       3.473715      21.018898     -9.5175
    -5       9.582930      -5.996285      17.351898     -3.3615
    -6      12.754930      -1.670285      15.651898      2.0500
    -6      12.884930       8.047715      17.218899     11.9720
    -6      15.854929       5.407715      15.539898      8.8380
    -6       9.703929      -1.789285      20.654898      1.1375
    -6       8.926929       5.383715      19.962898      1.6950
    -6      10.515929       2.902715      14.546898      2.6235
    -6      13.966929      -4.883285      14.873899      2.2105
    -6      14.052929      -8.302284      17.330898      2.2130
    -6      12.054929      -8.330284      20.982899      2.1570
    -6       9.978930      -5.090285      22.312899      1.8995
    -7      15.384930       1.780715      20.658897     -2.4535
    -7      14.053929       1.938715      16.333899     -2.6910
    -7      15.884930       3.681715      21.393898     -2.5165
    -7      11.080929       5.285715      20.821899     -2.3165
    -7      13.397929       8.469715      20.405899     -1.6080
    -7      16.637930       8.272716      16.673899     -1.5225
    -7      15.559929       5.308715      15.131899     -1.7285
    -7      17.730930       4.098715      15.357899     -1.5745
    -7      19.350929       5.068715      16.984898     -1.6335
    -7       8.760929       4.757715      16.534899     -1.5020
    -7      11.902929       5.685715      16.714899     -2.7540
    -7       7.022929       1.023715      17.684898     -1.6610
    -7      10.253929       0.759715      14.377898     -1.7800
    -7      15.675929       7.758715      21.090899     -1.5945
    -7      12.656929      -1.229285      15.643898     -2.6080
    -7      13.917930      -4.814285      14.523898     -0.9925
    -7      14.038929      -1.839285      19.790897     -2.4750
    -7       9.307929       1.023715      20.894897     -1.8685
    -7       9.849929      -4.733285      22.572899     -0.9875
    -7      14.253929      -8.501285      17.266899     -0.9670
    -7       9.256929      -1.418285      20.265898     -2.6235
    -7       9.158929      -5.244285      17.002899     -2.0510
    -7      12.095929      -8.484284      21.243898     -0.9675
    -8      14.987929       5.155715      18.521898      5.1775
    -8      11.277929       1.494715      18.369898      6.6120
    -8      12.018929      -4.806285      18.614899      7.1525
    -8      10.589930      -0.702285      17.728899      5.0300

$$$$
W_Site1_Baicalin_D
  xed2sdf_05210316543D
 
 49 52  0  0  1  0  0  0  0  0999 V2000
    9.7027    0.7662   21.1632 O   0  0  0  0  0  0  0  0  0  0  0  0
   10.3387    1.7772   23.2732 O   0  0  0  0  0  0  0  0  0  0  0  0
   13.7007    0.9202   19.8452 O   0  0  0  0  0  0  0  0  0  0  0  0
   12.9297    2.2132   22.2962 O   0  0  0  0  0  0  0  0  0  0  0  0
   11.5767    0.3622   17.9832 O   0  0  0  0  0  0  0  0  0  0  0  0
    8.9917   -1.4218   19.5132 O   0  5  0  0  0  0  0  0  0  0  0  0
    8.2367    0.2422   18.1432 O   0  0  0  0  0  0  0  0  0  0  0  0
    9.7647   -2.7638   24.2822 O   0  0  0  0  0  0  0  0  0  0  0  0
    7.9237    2.4332   24.4812 O   0  0  0  0  0  0  0  0  0  0  0  0
    6.4227    0.4382   25.5872 O   0  0  0  0  0  0  0  0  0  0  0  0
    6.2047   -2.0808   26.0842 O   0  0  0  0  0  0  0  0  0  0  0  0
   12.3417    1.2982   20.1072 C   0  0  0  0  0  0  0  0  0  0  0  0
   12.0597    1.2912   21.6212 C   0  0  0  0  0  0  0  0  0  0  0  0
   11.3697    0.3352   19.4022 C   0  0  0  0  0  0  0  0  0  0  0  0
   10.5867    1.6792   21.8542 C   0  0  0  0  0  0  0  0  0  0  0  0
    9.9257    0.7542   19.7362 C   0  0  0  0  0  0  0  0  0  0  0  0
    8.9797   -0.2168   19.0792 C   0  0  0  0  0  0  0  0  0  0  0  0
    9.5837    0.8292   23.8262 C   0  0  0  0  0  0  0  0  0  0  0  0
   10.0117   -0.4798   23.7832 C   0  0  0  0  0  0  0  0  0  0  0  0
    8.3687    1.1392   24.4342 C   0  0  0  0  0  0  0  0  0  0  0  0
    9.2697   -1.4988   24.3492 C   0  0  0  0  0  0  0  0  0  0  0  0
    8.0557   -1.1858   24.9602 C   0  0  0  0  0  0  0  0  0  0  0  0
    7.6087    0.1402   24.9932 C   0  0  0  0  0  0  0  0  0  0  0  0
    7.2987   -2.2678   25.5542 C   0  0  0  0  0  0  0  0  0  0  0  0
    9.0667   -3.7668   24.9082 C   0  0  0  0  0  0  0  0  0  0  0  0
    7.8617   -3.5698   25.5202 C   0  0  0  0  0  0  0  0  0  0  0  0
    9.6917   -5.1128   24.8822 C   0  0  0  0  0  0  0  0  0  0  0  0
    9.7367   -5.8058   23.6822 C   0  0  0  0  0  0  0  0  0  0  0  0
   10.2457   -5.7038   26.0092 C   0  0  0  0  0  0  0  0  0  0  0  0
   10.3117   -7.0508   23.6092 C   0  0  0  0  0  0  0  0  0  0  0  0
   10.8207   -6.9488   25.9342 C   0  0  0  0  0  0  0  0  0  0  0  0
   10.8547   -7.6258   24.7362 C   0  0  0  0  0  0  0  0  0  0  0  0
   12.2037    2.2242   19.7532 H   0  0  0  0  0  0  0  0  0  0  0  0
   12.2297    0.3772   21.9902 H   0  0  0  0  0  0  0  0  0  0  0  0
   11.5347   -0.5978   19.7222 H   0  0  0  0  0  0  0  0  0  0  0  0
   10.3937    2.5782   21.4632 H   0  0  0  0  0  0  0  0  0  0  0  0
    9.7667    1.6812   19.3952 H   0  0  0  0  0  0  0  0  0  0  0  0
   13.7727    0.3852   18.9962 H   0  0  0  0  0  0  0  0  0  0  0  0
   12.5587    3.1482   22.2752 H   0  0  0  0  0  0  0  0  0  0  0  0
   12.5317    0.1482   17.7492 H   0  0  0  0  0  0  0  0  0  0  0  0
    6.9977    2.5232   24.0992 H   0  0  0  0  0  0  0  0  0  0  0  0
    5.6547   -0.0128   25.1212 H   0  0  0  0  0  0  0  0  0  0  0  0
   10.8777   -0.6978   23.3322 H   0  0  0  0  0  0  0  0  0  0  0  0
    7.3797   -4.3368   25.9422 H   0  0  0  0  0  0  0  0  0  0  0  0
    9.3467   -5.3938   22.8592 H   0  0  0  0  0  0  0  0  0  0  0  0
   10.2247   -5.2188   26.8832 H   0  0  0  0  0  0  0  0  0  0  0  0
   10.3347   -7.5408   22.7372 H   0  0  0  0  0  0  0  0  0  0  0  0
   11.2167   -7.3648   26.7532 H   0  0  0  0  0  0  0  0  0  0  0  0
   11.2737   -8.5328   24.6842 H   0  0  0  0  0  0  0  0  0  0  0  0
  1 15  1  0
  1 16  1  0
  2 18  1  0
  6 17  1  0
  7 17  2  0
  8 21  1  0
  8 25  1  0
  9 20  1  0
 10 23  1  0
 11 24  2  0
 12  3  1  0
 12 13  1  0
 12 14  1  0
 13  4  1  0
 13 15  1  0
 14  5  1  0
 14 16  1  0
 15  2  1  0
 16 17  1  0
 18 19  2  0
 18 20  1  0
 19 21  1  0
 20 23  2  0
 21 22  2  0
 22 23  1  0
 22 24  1  0
 24 26  1  0
 25 26  2  0
 25 27  1  0
 27 28  2  0
 27 29  1  0
 28 30  1  0
 29 31  2  0
 30 32  2  0
 31 32  1  0
  3 38  1  0
  4 39  1  0
  5 40  1  0
  9 41  1  0
 10 42  1  0
 12 33  1  0
 13 34  1  0
 14 35  1  0
 15 36  1  0
 16 37  1  0
 19 43  1  0
 26 44  1  0
 28 45  1  0
 29 46  1  0
 30 47  1  0
 31 48  1  0
 32 49  1  0
M  CHG  1   6  -1
M  END
>  <BioMolTech Lead Finder dG>
-7.747

>  <BioMolTech Lead Finder VSscore>
-11.456

>  <BioMolTech Lead Finder Rank score>
-11.038

>  <BioMolTech Lead Finder LE>
-0.242

>  <BioMolTech Lead Finder Structure Name>
C:\Users\Odara\AppData\Local\Temp\LeadFinder_1996_1\Ligand_1.sdf

>  <BioMolTech Lead Finder SDF id>
0

>  <BioMolTech Lead Finder Pose rank>
0

>  <BioMolTech Lead Finder version>
2001 1, 19 January 2019

>  <PUBCHEM_COMPOUND_CID>
64982

>  <PUBCHEM_COMPOUND_CANONICALIZED>
1

>  <PUBCHEM_CACTVS_COMPLEXITY>
748

>  <PUBCHEM_CACTVS_HBOND_ACCEPTOR>
11

>  <PUBCHEM_CACTVS_HBOND_DONOR>
6

>  <PUBCHEM_CACTVS_ROTATABLE_BOND>
4

>  <PUBCHEM_CACTVS_SUBSKEYS>
AAADceB4PAAAAAAAAAAAAAAAAAAAAAAAAAA0YIEAAAAAAACBQAAAGgAACAAADBSwmAMwDoAABgCIAqDSCAICCAAkIAAIiAFGiMgdNzaGNR6ieWOl4BUPuQfK7LzOIQABCAAIQABCAAIQABCAAAAAAAAAAA==

>  <PUBCHEM_IUPAC_OPENEYE_NAME>
(2S,3S,4S,5R,6S)-6-(5,6-dihydroxy-4-oxo-2-phenyl-chromen-7-yl)oxy-3,4,5-trihydroxy-tetrahydropyran-2-carboxylic acid

>  <PUBCHEM_IUPAC_CAS_NAME>
(2S,3S,4S,5R,6S)-6-[(5,6-dihydroxy-4-oxo-2-phenyl-1-benzopyran-7-yl)oxy]-3,4,5-trihydroxy-2-oxanecarboxylic acid

>  <PUBCHEM_IUPAC_NAME_MARKUP>
(2<I>S</I>,3<I>S</I>,4<I>S</I>,5<I>R</I>,6<I>S</I>)-6-(5,6-dihydroxy-4-oxo-2-phenylchromen-7-yl)oxy-3,4,5-trihydroxyoxane-2-carboxylic acid

>  <PUBCHEM_IUPAC_NAME>
(2S,3S,4S,5R,6S)-6-(5,6-dihydroxy-4-oxo-2-phenylchromen-7-yl)oxy-3,4,5-trihydroxyoxane-2-carboxylic acid

>  <PUBCHEM_IUPAC_SYSTEMATIC_NAME>
(2S,3S,4S,5R,6S)-6-[5,6-bis(oxidanyl)-4-oxidanylidene-2-phenyl-chromen-7-yl]oxy-3,4,5-tris(oxidanyl)oxane-2-carboxylic acid

>  <PUBCHEM_IUPAC_TRADITIONAL_NAME>
(2S,3S,4S,5R,6S)-6-(5,6-dihydroxy-4-keto-2-phenyl-chromen-7-yl)oxy-3,4,5-trihydroxy-tetrahydropyran-2-carboxylic acid

>  <PUBCHEM_IUPAC_INCHI>
InChI=1S/C21H18O11/c22-9-6-10(8-4-2-1-3-5-8)30-11-7-12(14(23)15(24)13(9)11)31-21-18(27)16(25)17(26)19(32-21)20(28)29/h1-7,16-19,21,23-27H,(H,28,29)/t16-,17-,18+,19-,21+/m0/s1

>  <PUBCHEM_IUPAC_INCHIKEY>
IKIIZLYTISPENI-ZFORQUDYSA-N

>  <PUBCHEM_XLOGP3_AA>
1.1

>  <PUBCHEM_EXACT_MASS>
446.084911

>  <PUBCHEM_MOLECULAR_FORMULA>
C21H18O11

>  <PUBCHEM_MOLECULAR_WEIGHT>
446.4

>  <PUBCHEM_OPENEYE_CAN_SMILES>
C1=CC=C(C=C1)C2=CC(=O)C3=C(C(=C(C=C3O2)OC4C(C(C(C(O4)C(=O)O)O)O)O)O)O

>  <PUBCHEM_OPENEYE_ISO_SMILES>
C1=CC=C(C=C1)C2=CC(=O)C3=C(C(=C(C=C3O2)O[C@H]4[C@@H]([C@H]([C@@H]([C@H](O4)C(=O)O)O)O)O)O)O

>  <PUBCHEM_CACTVS_TPSA>
183

>  <PUBCHEM_MONOISOTOPIC_WEIGHT>
446.084911

>  <PUBCHEM_TOTAL_CHARGE>
0

>  <PUBCHEM_HEAVY_ATOM_COUNT>
32

>  <PUBCHEM_ATOM_DEF_STEREO_COUNT>
5

>  <PUBCHEM_ATOM_UDEF_STEREO_COUNT>
0

>  <PUBCHEM_BOND_DEF_STEREO_COUNT>
0

>  <PUBCHEM_BOND_UDEF_STEREO_COUNT>
0

>  <PUBCHEM_ISOTOPIC_ATOM_COUNT>
0

>  <PUBCHEM_COMPONENT_COUNT>
1

>  <PUBCHEM_CACTVS_TAUTO_COUNT>
-1

>  <PUBCHEM_COORDINATE_TYPE>
1
5
255

>  <PUBCHEM_BONDANNOTATIONS>
16  17  5
18  19  8
18  20  8
19  21  8
15  2  5
20  23  8
21  22  8
22  23  8
22  24  8
24  26  8
25  26  8
27  28  8
27  29  8
28  30  8
29  31  8
12  3  5
30  32  8
31  32  8
13  4  6
14  5  6
8  21  8
8  25  8

>  <LF dG>
-7.747

>  <LF VSscore>
-11.456

>  <LF Rank Score>
-11.038

>  <LF LE>
-0.242

>  <Preferred Pose_cresset>
true

>  <Favorite_cresset>
false

>  <Protein_cresset>
6Y2F_P | 5 A | With water

>  <MW_cresset>
445.4

>  <#Atoms_cresset>
32

>  <SlogP_cresset>
1.1

>  <TPSA_cresset>
186

>  <Flexibility_cresset>
7.6

>  <#RB_cresset>
9

>  <Rof5_cresset>
1

>  <Filename_cresset>
Baicalin.sdf

>  <Confs_cresset>
0

>  <Poses_cresset>
10

>  <_cresset_fieldpoints>
    -5       9.696688      -1.874822      21.196211     -6.8145
    -5       8.157688      -0.927822      21.514212     -6.2485
    -5       8.376688       2.997178      26.506212     -8.3055
    -5      14.738688       1.690178      21.587212    -12.0450
    -5       7.245688      -1.200822      17.595211     -9.8680
    -5       7.709688      -2.251822      18.478212     -9.6905
    -5      10.217689       0.564178      16.640211     -7.1010
    -5       8.330688       1.867178      17.128212     -5.7870
    -5      12.056688      -3.408822      24.251211     -4.5255
    -5       5.935688      -0.549822      27.366211    -12.5025
    -5       5.066688      -3.115822      27.170212    -10.8390
    -5       7.691688      -7.769822      25.349213     -3.6435
    -5      12.728688      -4.757822      24.236212     -4.4665
    -6       5.422688       1.980178      23.404211      3.6560
    -6      11.784688       4.300178      21.070211      6.8755
    -6      13.945688      -0.806822      17.762211     11.1200
    -6      11.259688      -6.581822      28.932213      1.7710
    -6      11.414688      -9.845822      22.635212      2.1360
    -6      12.259688      -9.668822      26.607212      2.1295
    -7      12.742688       1.561178      24.720211     -2.1615
    -7      11.137688       2.679178      17.216211     -1.7150
    -7      13.875689      -1.456822      20.783211     -1.8035
    -7      10.350688      -2.374822      21.239212     -3.2095
    -7      11.778688       4.621178      20.670212     -1.7120
    -7      14.606688       3.378178      20.988213     -1.4650
    -7      10.547688       4.167178      19.431211     -1.7895
    -7      10.668688      -1.797822      17.160212     -1.5410
    -7       9.899688       1.350178      16.541212     -1.7175
    -7       7.688688      -3.420822      22.265211     -2.6750
    -7      10.316689      -0.028822      27.257212     -1.8685
    -7       7.470688      -0.619822      21.539211     -3.1420
    -7      10.024688      -2.552822      27.462212     -2.6175
    -7       5.198688       1.277178      23.124212     -1.4360
    -7       5.798688       2.757178      26.057211     -1.4475
    -7       5.039688      -1.772822      23.656212     -1.7810
    -7       6.300688      -0.403822      27.958212     -1.6865
    -7       7.086688      -7.011822      25.567211     -2.0375
    -7      12.405688      -9.819822      26.816212     -0.9675
    -7      10.654688      -6.359822      29.287212     -0.9900
    -7      11.424688     -10.025822      22.402212     -0.9670
    -8      11.326688       1.165178      20.462212      5.1945
    -8       8.824688      -0.216822      24.393211      6.5965
    -8       8.268688      -2.423822      25.097212      5.0310
    -8      10.272688      -6.371822      24.810211      7.1520

$$$$
Site1_Wogonin_D
  xed2sdf_05210316543D
 
 33 35  0  0  0  0  0  0  0  0999 V2000
    9.4441    0.0147   21.4790 O   0  0  0  0  0  0  0  0  0  0  0  0
    9.5491   -1.9393   19.4670 O   0  0  0  0  0  0  0  0  0  0  0  0
   11.1171    3.1857   18.2480 O   0  0  0  0  0  0  0  0  0  0  0  0
   10.3711   -1.2923   17.0040 O   0  0  0  0  0  0  0  0  0  0  0  0
   10.5161    3.8367   20.7460 O   0  0  0  0  0  0  0  0  0  0  0  0
   10.2741    1.6457   19.8950 C   0  0  0  0  0  0  0  0  0  0  0  0
    9.8761    0.3447   20.2280 C   0  0  0  0  0  0  0  0  0  0  0  0
    9.3641    0.9947   22.4370 C   0  0  0  0  0  0  0  0  0  0  0  0
    9.9161   -0.6523   19.2500 C   0  0  0  0  0  0  0  0  0  0  0  0
   10.2001    2.6617   20.9290 C   0  0  0  0  0  0  0  0  0  0  0  0
   10.7121    1.9357   18.5950 C   0  0  0  0  0  0  0  0  0  0  0  0
    9.7281    2.2877   22.2100 C   0  0  0  0  0  0  0  0  0  0  0  0
    8.8591    0.5787   23.7690 C   0  0  0  0  0  0  0  0  0  0  0  0
   10.3371   -0.3363   17.9710 C   0  0  0  0  0  0  0  0  0  0  0  0
   10.7341    0.9497   17.6490 C   0  0  0  0  0  0  0  0  0  0  0  0
    9.4021   -0.4873   24.4730 C   0  0  0  0  0  0  0  0  0  0  0  0
    7.8111    1.2827   24.3420 C   0  0  0  0  0  0  0  0  0  0  0  0
    8.9081   -0.8363   25.7060 C   0  0  0  0  0  0  0  0  0  0  0  0
    7.3171    0.9317   25.5740 C   0  0  0  0  0  0  0  0  0  0  0  0
    7.8651   -0.1283   26.2590 C   0  0  0  0  0  0  0  0  0  0  0  0
   10.4911   -2.8873   20.0060 C   0  0  0  0  0  0  0  0  0  0  0  0
   10.3581    3.8417   18.2550 H   0  0  0  0  0  0  0  0  0  0  0  0
   10.8721   -2.1123   17.3000 H   0  0  0  0  0  0  0  0  0  0  0  0
    9.6621    2.9657   22.9420 H   0  0  0  0  0  0  0  0  0  0  0  0
   11.0381    1.1577   16.7200 H   0  0  0  0  0  0  0  0  0  0  0  0
   10.1601   -1.0063   24.0780 H   0  0  0  0  0  0  0  0  0  0  0  0
    7.4091    2.0557   23.8510 H   0  0  0  0  0  0  0  0  0  0  0  0
    9.3071   -1.6063   26.2040 H   0  0  0  0  0  0  0  0  0  0  0  0
    6.5591    1.4477   25.9740 H   0  0  0  0  0  0  0  0  0  0  0  0
    7.5061   -0.3843   27.1570 H   0  0  0  0  0  0  0  0  0  0  0  0
   11.3651   -2.4253   20.1600 H   0  0  0  0  0  0  0  0  0  0  0  0
   10.1461   -3.2523   20.8700 H   0  0  0  0  0  0  0  0  0  0  0  0
   10.6161   -3.6403   19.3610 H   0  0  0  0  0  0  0  0  0  0  0  0
  1  7  1  0
  1  8  1  0
  2  9  1  0
  2 21  1  0
  3 11  1  0
  4 14  1  0
  5 10  2  0
  6  7  2  0
  6 10  1  0
  6 11  1  0
  7  9  1  0
  8 12  2  0
  8 13  1  0
  9 14  2  0
 10 12  1  0
 11 15  2  0
 13 16  2  0
 13 17  1  0
 14 15  1  0
 16 18  1  0
 17 19  2  0
 18 20  2  0
 19 20  1  0
  3 22  1  0
  4 23  1  0
 12 24  1  0
 15 25  1  0
 16 26  1  0
 17 27  1  0
 18 28  1  0
 19 29  1  0
 20 30  1  0
 21 31  1  0
 21 32  1  0
 21 33  1  0
M  END
>  <BioMolTech Lead Finder dG>
-7.359

>  <BioMolTech Lead Finder VSscore>
-7.787

>  <BioMolTech Lead Finder Rank score>
-9.821

>  <BioMolTech Lead Finder LE>
-0.35

>  <BioMolTech Lead Finder Structure Name>
C:\Users\Odara\AppData\Local\Temp\LeadFinder_12816_1\Ligand_1.sdf

>  <BioMolTech Lead Finder SDF id>
0

>  <BioMolTech Lead Finder Pose rank>
0

>  <BioMolTech Lead Finder version>
2001 1, 19 January 2019

>  <PUBCHEM_COMPOUND_CID>
5281703

>  <PUBCHEM_COMPOUND_CANONICALIZED>
1

>  <PUBCHEM_CACTVS_COMPLEXITY>
426

>  <PUBCHEM_CACTVS_HBOND_ACCEPTOR>
5

>  <PUBCHEM_CACTVS_HBOND_DONOR>
2

>  <PUBCHEM_CACTVS_ROTATABLE_BOND>
2

>  <PUBCHEM_CACTVS_SUBSKEYS>
AAADccB4OAAAAAAAAAAAAAAAAAAAAAAAAAAwYIAAAAAAAACBQAAAGgAACAAADASAmAIyBoAABgCIAqBSAAACCAAkIAAIiAEGiMgNJzaGNRqCeWOl4BULuQfK7LzOIQABCAAIQABCAAIQABCAAAAAAAAAAA==

>  <PUBCHEM_IUPAC_OPENEYE_NAME>
5,7-dihydroxy-8-methoxy-2-phenyl-chromen-4-one

>  <PUBCHEM_IUPAC_CAS_NAME>
5,7-dihydroxy-8-methoxy-2-phenyl-1-benzopyran-4-one

>  <PUBCHEM_IUPAC_NAME_MARKUP>
5,7-dihydroxy-8-methoxy-2-phenylchromen-4-one

>  <PUBCHEM_IUPAC_NAME>
5,7-dihydroxy-8-methoxy-2-phenylchromen-4-one

>  <PUBCHEM_IUPAC_SYSTEMATIC_NAME>
8-methoxy-5,7-bis(oxidanyl)-2-phenyl-chromen-4-one

>  <PUBCHEM_IUPAC_TRADITIONAL_NAME>
5,7-dihydroxy-8-methoxy-2-phenyl-chromone

>  <PUBCHEM_IUPAC_INCHI>
InChI=1S/C16H12O5/c1-20-15-12(19)7-10(17)14-11(18)8-13(21-16(14)15)9-5-3-2-4-6-9/h2-8,17,19H,1H3

>  <PUBCHEM_IUPAC_INCHIKEY>
XLTFNNCXVBYBSX-UHFFFAOYSA-N

>  <PUBCHEM_XLOGP3_AA>
3

>  <PUBCHEM_EXACT_MASS>
284.068473

>  <PUBCHEM_MOLECULAR_FORMULA>
C16H12O5

>  <PUBCHEM_MOLECULAR_WEIGHT>
284.26

>  <PUBCHEM_OPENEYE_CAN_SMILES>
COC1=C(C=C(C2=C1OC(=CC2=O)C3=CC=CC=C3)O)O

>  <PUBCHEM_OPENEYE_ISO_SMILES>
COC1=C(C=C(C2=C1OC(=CC2=O)C3=CC=CC=C3)O)O

>  <PUBCHEM_CACTVS_TPSA>
76

>  <PUBCHEM_MONOISOTOPIC_WEIGHT>
284.068473

>  <PUBCHEM_TOTAL_CHARGE>
0

>  <PUBCHEM_HEAVY_ATOM_COUNT>
21

>  <PUBCHEM_ATOM_DEF_STEREO_COUNT>
0

>  <PUBCHEM_ATOM_UDEF_STEREO_COUNT>
0

>  <PUBCHEM_BOND_DEF_STEREO_COUNT>
0

>  <PUBCHEM_BOND_UDEF_STEREO_COUNT>
0

>  <PUBCHEM_ISOTOPIC_ATOM_COUNT>
0

>  <PUBCHEM_COMPONENT_COUNT>
1

>  <PUBCHEM_CACTVS_TAUTO_COUNT>
-1

>  <PUBCHEM_COORDINATE_TYPE>
1
5
255

>  <PUBCHEM_BONDANNOTATIONS>
1  7  8
1  8  8
10  12  8
11  15  8
13  16  8
13  17  8
14  15  8
16  18  8
17  19  8
18  20  8
19  20  8
6  10  8
6  11  8
6  7  8
7  9  8
8  12  8
9  14  8

>  <LF dG>
-7.359

>  <LF VSscore>
-7.787

>  <LF Rank Score>
-9.821

>  <LF LE>
-0.35

>  <Preferred Pose_cresset>
true

>  <Favorite_cresset>
false

>  <Protein_cresset>
6Y2F_P | 5 A | With water

>  <MW_cresset>
284.3

>  <#Atoms_cresset>
21

>  <SlogP_cresset>
2.6

>  <TPSA_cresset>
76

>  <Flexibility_cresset>
1.7

>  <#RB_cresset>
4

>  <Rof5_cresset>
0

>  <Filename_cresset>
Wogonin.sdf

>  <Confs_cresset>
0

>  <Poses_cresset>
10

>  <_cresset_fieldpoints>
    -5      12.097116       4.372721      19.679003    -11.5285
    -5      10.894116       5.371720      21.778002     -9.6770
    -5       8.225117      -1.667279      16.655003     -4.9910
    -5      10.309116       2.004720      26.439003     -2.4995
    -5       7.671116      -1.531280      21.333002     -4.4775
    -6      12.283116      -3.115279      17.685001      7.1985
    -6       8.822117       4.342721      17.442001      2.1900
    -6       5.608117       3.386720      24.865002      3.0455
    -6       5.669116       0.826720      28.233002      3.1145
    -6       8.563116      -2.359280      28.377003      3.2665
    -6      11.608116      -1.748280      22.591002      4.8425
    -7       7.828116      -1.853280      21.779001     -3.0150
    -7       7.213117       1.457721      18.411001     -1.8625
    -7      10.795116       3.920720      15.900002     -1.2590
    -7       8.275116       4.282721      19.323002     -1.7905
    -7      12.831117       4.137720      19.807001     -1.6720
    -7      13.173117      -0.386280      20.086002     -2.2200
    -7      11.963117      -0.787279      22.317001     -2.8745
    -7      10.813116       2.633720      25.363003     -2.0155
    -7       6.953116       1.885720      20.976002     -2.5925
    -7       5.434116       0.886720      28.402002     -0.9675
    -7       8.440117      -2.478280      28.643002     -0.9675
    -7       8.869117      -3.280280      17.096003     -1.8715
    -8      10.315117       0.678720      18.937002      6.6005
    -8       8.360117       0.226720      25.019001      7.1535
    -8       9.905116       1.642720      21.111002      4.9920
    -8      11.094116      -3.434280      20.329002      2.5260
    -8       8.830116       1.512720      23.383001      5.3115

$$$$
W_Site1_Wogonin_D
  xed2sdf_05210316543D
 
 33 35  0  0  0  0  0  0  0  0999 V2000
    9.6105   -0.2302   21.3767 O   0  0  0  0  0  0  0  0  0  0  0  0
    9.6015   -2.0832   19.2687 O   0  0  0  0  0  0  0  0  0  0  0  0
   10.8645    3.1508   18.1677 O   0  0  0  0  0  0  0  0  0  0  0  0
   10.1705   -1.2922   16.7767 O   0  0  0  0  0  0  0  0  0  0  0  0
   10.4715    3.6618   20.7377 O   0  0  0  0  0  0  0  0  0  0  0  0
   10.2325    1.5048   19.8067 C   0  0  0  0  0  0  0  0  0  0  0  0
    9.9145    0.1748   20.1097 C   0  0  0  0  0  0  0  0  0  0  0  0
    9.5835    0.7008   22.3837 C   0  0  0  0  0  0  0  0  0  0  0  0
    9.9005   -0.7752   19.0837 C   0  0  0  0  0  0  0  0  0  0  0  0
   10.2165    2.4688   20.8917 C   0  0  0  0  0  0  0  0  0  0  0  0
   10.5395    1.8708   18.4877 C   0  0  0  0  0  0  0  0  0  0  0  0
    9.8775    2.0168   22.1897 C   0  0  0  0  0  0  0  0  0  0  0  0
    9.2175    0.2048   23.7347 C   0  0  0  0  0  0  0  0  0  0  0  0
   10.1915   -0.3842   17.7897 C   0  0  0  0  0  0  0  0  0  0  0  0
   10.5095    0.9298   17.4967 C   0  0  0  0  0  0  0  0  0  0  0  0
   10.0895   -0.5402   24.5157 C   0  0  0  0  0  0  0  0  0  0  0  0
    7.9625    0.4998   24.2427 C   0  0  0  0  0  0  0  0  0  0  0  0
    9.7135   -0.9762   25.7637 C   0  0  0  0  0  0  0  0  0  0  0  0
    7.5875    0.0628   25.4897 C   0  0  0  0  0  0  0  0  0  0  0  0
    8.4625   -0.6762   26.2527 C   0  0  0  0  0  0  0  0  0  0  0  0
   10.4905   -2.9372   20.0167 C   0  0  0  0  0  0  0  0  0  0  0  0
   10.0795    3.7698   18.2517 H   0  0  0  0  0  0  0  0  0  0  0  0
   10.5705   -2.1732   17.0507 H   0  0  0  0  0  0  0  0  0  0  0  0
    9.8545    2.6578   22.9567 H   0  0  0  0  0  0  0  0  0  0  0  0
   10.7195    1.1938   16.5547 H   0  0  0  0  0  0  0  0  0  0  0  0
   11.0005   -0.7612   24.1677 H   0  0  0  0  0  0  0  0  0  0  0  0
    7.3215    1.0378   23.6957 H   0  0  0  0  0  0  0  0  0  0  0  0
   10.3505   -1.5122   26.3177 H   0  0  0  0  0  0  0  0  0  0  0  0
    6.6775    0.2808   25.8437 H   0  0  0  0  0  0  0  0  0  0  0  0
    8.1905   -0.9952   27.1607 H   0  0  0  0  0  0  0  0  0  0  0  0
   11.2755   -2.4002   20.3237 H   0  0  0  0  0  0  0  0  0  0  0  0
   10.0095   -3.3142   20.8087 H   0  0  0  0  0  0  0  0  0  0  0  0
   10.8015   -3.6892   19.4367 H   0  0  0  0  0  0  0  0  0  0  0  0
  1  7  1  0
  1  8  1  0
  2  9  1  0
  2 21  1  0
  3 11  1  0
  4 14  1  0
  5 10  2  0
  6  7  2  0
  6 10  1  0
  6 11  1  0
  7  9  1  0
  8 12  2  0
  8 13  1  0
  9 14  2  0
 10 12  1  0
 11 15  2  0
 13 16  2  0
 13 17  1  0
 14 15  1  0
 16 18  1  0
 17 19  2  0
 18 20  2  0
 19 20  1  0
  3 22  1  0
  4 23  1  0
 12 24  1  0
 15 25  1  0
 16 26  1  0
 17 27  1  0
 18 28  1  0
 19 29  1  0
 20 30  1  0
 21 31  1  0
 21 32  1  0
 21 33  1  0
M  END
>  <BioMolTech Lead Finder dG>
-7.796

>  <BioMolTech Lead Finder VSscore>
-8.287

>  <BioMolTech Lead Finder Rank score>
-10.461

>  <BioMolTech Lead Finder LE>
-0.371

>  <BioMolTech Lead Finder Structure Name>
C:\Users\Odara\AppData\Local\Temp\LeadFinder_12780_1\Ligand_1.sdf

>  <BioMolTech Lead Finder SDF id>
0

>  <BioMolTech Lead Finder Pose rank>
0

>  <BioMolTech Lead Finder version>
2001 1, 19 January 2019

>  <PUBCHEM_COMPOUND_CID>
5281703

>  <PUBCHEM_COMPOUND_CANONICALIZED>
1

>  <PUBCHEM_CACTVS_COMPLEXITY>
426

>  <PUBCHEM_CACTVS_HBOND_ACCEPTOR>
5

>  <PUBCHEM_CACTVS_HBOND_DONOR>
2

>  <PUBCHEM_CACTVS_ROTATABLE_BOND>
2

>  <PUBCHEM_CACTVS_SUBSKEYS>
AAADccB4OAAAAAAAAAAAAAAAAAAAAAAAAAAwYIAAAAAAAACBQAAAGgAACAAADASAmAIyBoAABgCIAqBSAAACCAAkIAAIiAEGiMgNJzaGNRqCeWOl4BULuQfK7LzOIQABCAAIQABCAAIQABCAAAAAAAAAAA==

>  <PUBCHEM_IUPAC_OPENEYE_NAME>
5,7-dihydroxy-8-methoxy-2-phenyl-chromen-4-one

>  <PUBCHEM_IUPAC_CAS_NAME>
5,7-dihydroxy-8-methoxy-2-phenyl-1-benzopyran-4-one

>  <PUBCHEM_IUPAC_NAME_MARKUP>
5,7-dihydroxy-8-methoxy-2-phenylchromen-4-one

>  <PUBCHEM_IUPAC_NAME>
5,7-dihydroxy-8-methoxy-2-phenylchromen-4-one

>  <PUBCHEM_IUPAC_SYSTEMATIC_NAME>
8-methoxy-5,7-bis(oxidanyl)-2-phenyl-chromen-4-one

>  <PUBCHEM_IUPAC_TRADITIONAL_NAME>
5,7-dihydroxy-8-methoxy-2-phenyl-chromone

>  <PUBCHEM_IUPAC_INCHI>
InChI=1S/C16H12O5/c1-20-15-12(19)7-10(17)14-11(18)8-13(21-16(14)15)9-5-3-2-4-6-9/h2-8,17,19H,1H3

>  <PUBCHEM_IUPAC_INCHIKEY>
XLTFNNCXVBYBSX-UHFFFAOYSA-N

>  <PUBCHEM_XLOGP3_AA>
3

>  <PUBCHEM_EXACT_MASS>
284.068473

>  <PUBCHEM_MOLECULAR_FORMULA>
C16H12O5

>  <PUBCHEM_MOLECULAR_WEIGHT>
284.26

>  <PUBCHEM_OPENEYE_CAN_SMILES>
COC1=C(C=C(C2=C1OC(=CC2=O)C3=CC=CC=C3)O)O

>  <PUBCHEM_OPENEYE_ISO_SMILES>
COC1=C(C=C(C2=C1OC(=CC2=O)C3=CC=CC=C3)O)O

>  <PUBCHEM_CACTVS_TPSA>
76

>  <PUBCHEM_MONOISOTOPIC_WEIGHT>
284.068473

>  <PUBCHEM_TOTAL_CHARGE>
0

>  <PUBCHEM_HEAVY_ATOM_COUNT>
21

>  <PUBCHEM_ATOM_DEF_STEREO_COUNT>
0

>  <PUBCHEM_ATOM_UDEF_STEREO_COUNT>
0

>  <PUBCHEM_BOND_DEF_STEREO_COUNT>
0

>  <PUBCHEM_BOND_UDEF_STEREO_COUNT>
0

>  <PUBCHEM_ISOTOPIC_ATOM_COUNT>
0

>  <PUBCHEM_COMPONENT_COUNT>
1

>  <PUBCHEM_CACTVS_TAUTO_COUNT>
-1

>  <PUBCHEM_COORDINATE_TYPE>
1
5
255

>  <PUBCHEM_BONDANNOTATIONS>
1  7  8
1  8  8
10  12  8
11  15  8
13  16  8
13  17  8
14  15  8
16  18  8
17  19  8
18  20  8
19  20  8
6  10  8
6  11  8
6  7  8
7  9  8
8  12  8
9  14  8

>  <LF dG>
-7.796

>  <LF VSscore>
-8.287

>  <LF Rank Score>
-10.461

>  <LF LE>
-0.371

>  <Preferred Pose_cresset>
true

>  <Favorite_cresset>
false

>  <Protein_cresset>
6Y2F_P | 5 A | With water

>  <MW_cresset>
284.3

>  <#Atoms_cresset>
21

>  <SlogP_cresset>
2.6

>  <TPSA_cresset>
76

>  <Flexibility_cresset>
1.7

>  <#RB_cresset>
4

>  <Rof5_cresset>
0

>  <Filename_cresset>
Wogonin.sdf

>  <Confs_cresset>
0

>  <Poses_cresset>
10

>  <_cresset_fieldpoints>
    -5       8.141526      -1.436188      16.155689     -4.8200
    -5      11.911526       4.314812      19.553688    -11.6635
    -5      10.837526       5.169812      21.815689     -9.7880
    -5       9.888526       2.207812      26.399689     -2.3080
    -5       7.803526      -1.752188      21.389688     -3.6145
    -6       6.920527       1.745812      21.652689      2.6945
    -6      12.092526      -1.279188      22.275688      4.8490
    -6       5.084526       1.618812      24.624689      3.0925
    -6       8.451527       4.216812      17.606689      2.2555
    -6       5.993526      -0.535188      28.120689      3.2235
    -6      12.573526      -2.267188      24.847689      3.8270
    -6       9.825526      -2.403188      28.504688      3.3900
    -6      11.913527      -3.302188      17.359690      6.3365
    -7       7.022526       1.553812      21.090689     -2.6445
    -7       7.052526       1.258812      18.619690     -1.8690
    -7      10.354527       3.962812      15.878689     -1.2600
    -7      13.178526      -0.484188      19.739689     -2.2035
    -7       8.103526       4.090812      19.541689     -1.7895
    -7      12.685526       4.088812      19.618689     -1.6695
    -7       5.065526       2.183812      24.589689     -0.9955
    -7       5.753526      -0.505188      28.293690     -0.9675
    -7      10.156527       2.743812      25.640690     -2.0555
    -7       9.797526      -2.461188      28.819689     -0.9675
    -7      12.350527      -0.554188      22.005690     -2.9010
    -7       7.822526      -1.935188      21.702688     -3.0395
    -7       8.672526      -3.408188      17.071690     -1.7725
    -8      10.221526       0.584812      18.800690      6.6000
    -8       8.840527      -0.233188      24.996689      7.1540
    -8       9.974526       1.431812      21.047689      4.9935
    -8      11.054526      -3.432188      20.475689      2.5230

$$$$
Site1_Wogonoside_D
  xed2sdf_05210316543D
 
 52 55  0  0  1  0  0  0  0  0999 V2000
   10.2388    0.6077   19.7731 O   0  0  0  0  0  0  0  0  0  0  0  0
   10.9318    1.1387   22.0601 O   0  0  0  0  0  0  0  0  0  0  0  0
   11.8628    4.2427   18.4271 O   0  0  0  0  0  0  0  0  0  0  0  0
   11.7098    3.6797   21.2391 O   0  0  0  0  0  0  0  0  0  0  0  0
   10.0348    2.7567   16.7501 O   0  0  0  0  0  0  0  0  0  0  0  0
   10.4678   -0.3573   16.8911 O   0  5  0  0  0  0  0  0  0  0  0  0
    8.2648   -0.4283   17.4871 O   0  0  0  0  0  0  0  0  0  0  0  0
    8.8948   -2.5853   24.1011 O   0  0  0  0  0  0  0  0  0  0  0  0
   10.7058   -1.5293   22.3801 O   0  0  0  0  0  0  0  0  0  0  0  0
    7.4268    1.8697   25.1541 O   0  0  0  0  0  0  0  0  0  0  0  0
    6.3628   -0.2243   26.1981 O   0  0  0  0  0  0  0  0  0  0  0  0
   10.9258    3.2947   18.9601 C   0  0  0  0  0  0  0  0  0  0  0  0
   11.4798    2.6647   20.2521 C   0  0  0  0  0  0  0  0  0  0  0  0
   10.6318    2.1917   17.9271 C   0  0  0  0  0  0  0  0  0  0  0  0
   10.4728    1.6217   20.7771 C   0  0  0  0  0  0  0  0  0  0  0  0
    9.6858    1.1507   18.5561 C   0  0  0  0  0  0  0  0  0  0  0  0
    9.4548    0.0377   17.5671 C   0  0  0  0  0  0  0  0  0  0  0  0
   10.0208    0.6607   22.9121 C   0  0  0  0  0  0  0  0  0  0  0  0
    9.8898   -0.7083   23.0711 C   0  0  0  0  0  0  0  0  0  0  0  0
    9.1868    1.5217   23.6151 C   0  0  0  0  0  0  0  0  0  0  0  0
    8.9528   -1.2323   23.9521 C   0  0  0  0  0  0  0  0  0  0  0  0
    8.1188   -0.3583   24.6511 C   0  0  0  0  0  0  0  0  0  0  0  0
    8.2428    1.0237   24.4731 C   0  0  0  0  0  0  0  0  0  0  0  0
    7.1408   -0.9283   25.5551 C   0  0  0  0  0  0  0  0  0  0  0  0
    7.9698   -3.1083   24.9701 C   0  0  0  0  0  0  0  0  0  0  0  0
    7.0998   -2.3393   25.6891 C   0  0  0  0  0  0  0  0  0  0  0  0
    7.9628   -4.5883   25.1041 C   0  0  0  0  0  0  0  0  0  0  0  0
   11.9248   -1.9493   23.0251 C   0  0  0  0  0  0  0  0  0  0  0  0
    8.9648   -5.2923   25.7571 C   0  0  0  0  0  0  0  0  0  0  0  0
    6.9078   -5.3003   24.5551 C   0  0  0  0  0  0  0  0  0  0  0  0
    8.9108   -6.6623   25.8521 C   0  0  0  0  0  0  0  0  0  0  0  0
    6.8558   -6.6693   24.6481 C   0  0  0  0  0  0  0  0  0  0  0  0
    7.8578   -7.3543   25.2971 C   0  0  0  0  0  0  0  0  0  0  0  0
   10.0758    3.7767   19.1721 H   0  0  0  0  0  0  0  0  0  0  0  0
   12.3518    2.2147   20.0571 H   0  0  0  0  0  0  0  0  0  0  0  0
   11.4888    1.7497   17.6621 H   0  0  0  0  0  0  0  0  0  0  0  0
    9.5718    2.0217   20.9411 H   0  0  0  0  0  0  0  0  0  0  0  0
    8.8218    1.6007   18.7821 H   0  0  0  0  0  0  0  0  0  0  0  0
   11.8358    5.1097   18.9351 H   0  0  0  0  0  0  0  0  0  0  0  0
   11.0488    3.6137   21.9941 H   0  0  0  0  0  0  0  0  0  0  0  0
   10.3028    2.2487   15.9241 H   0  0  0  0  0  0  0  0  0  0  0  0
    7.0558    2.5867   24.5541 H   0  0  0  0  0  0  0  0  0  0  0  0
    9.2778    2.5107   23.4941 H   0  0  0  0  0  0  0  0  0  0  0  0
    6.4398   -2.7683   26.3051 H   0  0  0  0  0  0  0  0  0  0  0  0
   11.9688   -1.5383   23.9361 H   0  0  0  0  0  0  0  0  0  0  0  0
   11.9388   -2.9463   23.1041 H   0  0  0  0  0  0  0  0  0  0  0  0
   12.7118   -1.6543   22.4831 H   0  0  0  0  0  0  0  0  0  0  0  0
    9.7338   -4.7983   26.1631 H   0  0  0  0  0  0  0  0  0  0  0  0
    6.1748   -4.8103   24.0841 H   0  0  0  0  0  0  0  0  0  0  0  0
    9.6398   -7.1583   26.3241 H   0  0  0  0  0  0  0  0  0  0  0  0
    6.0888   -7.1693   24.2441 H   0  0  0  0  0  0  0  0  0  0  0  0
    7.8218   -8.3513   25.3651 H   0  0  0  0  0  0  0  0  0  0  0  0
  1 15  1  0
  1 16  1  0
  2 18  1  0
  6 17  1  0
  7 17  2  0
  8 21  1  0
  8 25  1  0
  9 19  1  0
  9 28  1  0
 10 23  1  0
 11 24  2  0
 12  3  1  0
 12 13  1  0
 12 14  1  0
 13  4  1  0
 13 15  1  0
 14  5  1  0
 14 16  1  0
 15  2  1  0
 16 17  1  0
 18 19  2  0
 18 20  1  0
 19 21  1  0
 20 23  2  0
 21 22  2  0
 22 23  1  0
 22 24  1  0
 24 26  1  0
 25 26  2  0
 25 27  1  0
 27 29  2  0
 27 30  1  0
 29 31  1  0
 30 32  2  0
 31 33  2  0
 32 33  1  0
  3 39  1  0
  4 40  1  0
  5 41  1  0
 10 42  1  0
 12 34  1  0
 13 35  1  0
 14 36  1  0
 15 37  1  0
 16 38  1  0
 20 43  1  0
 26 44  1  0
 28 45  1  0
 28 46  1  0
 28 47  1  0
 29 48  1  0
 30 49  1  0
 31 50  1  0
 32 51  1  0
 33 52  1  0
M  CHG  1   6  -1
M  END
>  <BioMolTech Lead Finder dG>
-8.296

>  <BioMolTech Lead Finder VSscore>
-11.806

>  <BioMolTech Lead Finder Rank score>
-12.962

>  <BioMolTech Lead Finder LE>
-0.251

>  <BioMolTech Lead Finder Structure Name>
C:\Users\Odara\AppData\Local\Temp\LeadFinder_1996_1\Ligand_1.sdf

>  <BioMolTech Lead Finder SDF id>
0

>  <BioMolTech Lead Finder Pose rank>
0

>  <BioMolTech Lead Finder version>
2001 1, 19 January 2019

>  <PUBCHEM_COMPOUND_CID>
3084961

>  <PUBCHEM_COMPOUND_CANONICALIZED>
1

>  <PUBCHEM_CACTVS_COMPLEXITY>
763

>  <PUBCHEM_CACTVS_HBOND_ACCEPTOR>
11

>  <PUBCHEM_CACTVS_HBOND_DONOR>
5

>  <PUBCHEM_CACTVS_ROTATABLE_BOND>
5

>  <PUBCHEM_CACTVS_SUBSKEYS>
AAADceB4PAAAAAAAAAAAAAAAAAAAAAAAAAA0YIEAAAAAAACBQAAAGgAACAAADBSwmAMyDoAABgCIAqDSCAICCAAkIAAIiAFGiMgdNzaGNR6ieWKl4BUPuQfK7LzOIQABCAAIQABCAAIQABCAAAAAAAAAAA==

>  <PUBCHEM_IUPAC_OPENEYE_NAME>
(2S,3S,4S,5R,6S)-3,4,5-trihydroxy-6-(5-hydroxy-8-methoxy-4-oxo-2-phenyl-chromen-7-yl)oxy-tetrahydropyran-2-carboxylic acid

>  <PUBCHEM_IUPAC_CAS_NAME>
(2S,3S,4S,5R,6S)-3,4,5-trihydroxy-6-[(5-hydroxy-8-methoxy-4-oxo-2-phenyl-1-benzopyran-7-yl)oxy]-2-oxanecarboxylic acid

>  <PUBCHEM_IUPAC_NAME_MARKUP>
(2<I>S</I>,3<I>S</I>,4<I>S</I>,5<I>R</I>,6<I>S</I>)-3,4,5-trihydroxy-6-(5-hydroxy-8-methoxy-4-oxo-2-phenylchromen-7-yl)oxyoxane-2-carboxylic acid

>  <PUBCHEM_IUPAC_NAME>
(2S,3S,4S,5R,6S)-3,4,5-trihydroxy-6-(5-hydroxy-8-methoxy-4-oxo-2-phenylchromen-7-yl)oxyoxane-2-carboxylic acid

>  <PUBCHEM_IUPAC_SYSTEMATIC_NAME>
(2S,3S,4S,5R,6S)-6-(8-methoxy-5-oxidanyl-4-oxidanylidene-2-phenyl-chromen-7-yl)oxy-3,4,5-tris(oxidanyl)oxane-2-carboxylic acid

>  <PUBCHEM_IUPAC_TRADITIONAL_NAME>
(2S,3S,4S,5R,6S)-3,4,5-trihydroxy-6-(5-hydroxy-4-keto-8-methoxy-2-phenyl-chromen-7-yl)oxy-tetrahydropyran-2-carboxylic acid

>  <PUBCHEM_IUPAC_INCHI>
InChI=1S/C22H20O11/c1-30-18-13(32-22-17(27)15(25)16(26)20(33-22)21(28)29)8-11(24)14-10(23)7-12(31-19(14)18)9-5-3-2-4-6-9/h2-8,15-17,20,22,24-27H,1H3,(H,28,29)/t15-,16-,17+,20-,22+/m0/s1

>  <PUBCHEM_IUPAC_INCHIKEY>
LNOHXHDWGCMVCO-NTKSAMNMSA-N

>  <PUBCHEM_XLOGP3_AA>
1.4

>  <PUBCHEM_EXACT_MASS>
460.100561

>  <PUBCHEM_MOLECULAR_FORMULA>
C22H20O11

>  <PUBCHEM_MOLECULAR_WEIGHT>
460.4

>  <PUBCHEM_OPENEYE_CAN_SMILES>
COC1=C(C=C(C2=C1OC(=CC2=O)C3=CC=CC=C3)O)OC4C(C(C(C(O4)C(=O)O)O)O)O

>  <PUBCHEM_OPENEYE_ISO_SMILES>
COC1=C(C=C(C2=C1OC(=CC2=O)C3=CC=CC=C3)O)O[C@H]4[C@@H]([C@H]([C@@H]([C@H](O4)C(=O)O)O)O)O

>  <PUBCHEM_CACTVS_TPSA>
172

>  <PUBCHEM_MONOISOTOPIC_WEIGHT>
460.100561

>  <PUBCHEM_TOTAL_CHARGE>
0

>  <PUBCHEM_HEAVY_ATOM_COUNT>
33

>  <PUBCHEM_ATOM_DEF_STEREO_COUNT>
5

>  <PUBCHEM_ATOM_UDEF_STEREO_COUNT>
0

>  <PUBCHEM_BOND_DEF_STEREO_COUNT>
0

>  <PUBCHEM_BOND_UDEF_STEREO_COUNT>
0

>  <PUBCHEM_ISOTOPIC_ATOM_COUNT>
0

>  <PUBCHEM_COMPONENT_COUNT>
1

>  <PUBCHEM_CACTVS_TAUTO_COUNT>
-1

>  <PUBCHEM_COORDINATE_TYPE>
1
5
255

>  <PUBCHEM_BONDANNOTATIONS>
16  17  5
18  19  8
18  20  8
19  21  8
15  2  5
20  23  8
21  22  8
22  23  8
22  24  8
24  26  8
25  26  8
27  29  8
27  30  8
29  31  8
12  3  5
30  32  8
31  33  8
32  33  8
13  4  6
14  5  6
8  21  8
8  25  8

>  <LF dG>
-8.296

>  <LF VSscore>
-11.806

>  <LF Rank Score>
-12.962

>  <LF LE>
-0.251

>  <Preferred Pose_cresset>
true

>  <Favorite_cresset>
false

>  <Protein_cresset>
6Y2F_P | 5 A | With water

>  <MW_cresset>
459.4

>  <#Atoms_cresset>
33

>  <SlogP_cresset>
1.4

>  <TPSA_cresset>
175

>  <Flexibility_cresset>
7.6

>  <#RB_cresset>
9

>  <Rof5_cresset>
1

>  <Filename_cresset>
Wogonoside.sdf

>  <Confs_cresset>
0

>  <Poses_cresset>
10

>  <_cresset_fieldpoints>
    -5      11.351791       4.501740      16.554092    -10.8110
    -5      13.491791       4.259740      21.379093     -7.4530
    -5       8.366791      -1.797260      16.264093     -9.8760
    -5       9.789791      -1.773260      15.894094     -9.5980
    -5       6.688791      -0.197260      18.557093     -5.9005
    -5       6.323791       1.551740      26.819094    -13.7055
    -5       5.057791      -0.409260      27.526093    -11.6145
    -5       6.435791      -5.902260      27.802094     -3.4695
    -5      10.644791      -1.362260      20.051094    -10.5390
    -6       9.275791       4.031740      22.030094     11.2910
    -6      10.506791       6.049740      19.921093      4.2880
    -6      10.887791       1.217740      14.681093      2.4430
    -6      11.012791      -2.937260      25.970093      2.8685
    -6       7.589791       3.874740      23.209093      8.4040
    -6      11.585791      -5.884260      27.291094      2.3615
    -6       9.611791      -9.602260      26.610092      2.2265
    -6       4.155791      -6.221260      23.281094      1.7565
    -6       5.991791      -9.711260      24.539093      2.0755
    -7       7.579791      -0.004260      20.733093     -3.0030
    -7      13.801790       4.804740      20.066093     -1.4510
    -7       8.927791       4.375740      21.680094     -2.4510
    -7      11.434791       4.659740      16.011093     -1.5050
    -7      13.969791       2.948740      17.939093     -1.5955
    -7      12.632792       2.751740      23.403093     -2.2450
    -7      11.296791      -0.120260      26.115093     -2.2995
    -7       7.701791       3.491740      20.372093     -2.1185
    -7      11.804790       0.669740      15.242093     -1.4900
    -7       7.855791       3.779740      17.497093     -1.6750
    -7       7.820791       2.115740      16.042093     -1.6840
    -7       4.985791       1.255740      24.643093     -1.7735
    -7       7.727791       1.301740      27.711094     -1.6465
    -7       8.418791       4.204740      25.557093     -1.2800
    -7       4.793791      -1.426260      27.732094     -1.2090
    -7      13.551790       0.870740      22.233093     -2.2935
    -7      10.751791      -2.476260      26.233093     -2.9385
    -7      12.009790      -0.935260      19.856094     -3.1210
    -7       9.552791      -4.167260      22.313093     -3.0905
    -7       5.814791      -9.888260      24.320093     -0.9670
    -7       6.250791      -4.942260      27.905094     -2.0460
    -7       6.063791      -2.451260      22.776093     -2.6300
    -7       9.718791      -9.868259      26.626093     -0.9675
    -8      10.558791       2.320740      19.275093      5.1500
    -8       7.908791      -5.974260      25.203093      7.1520
    -8       9.047791       0.166740      23.798094      6.6165
    -8      12.656791      -2.180260      23.453093      2.5245
    -8       7.823791      -1.546260      24.988094      5.0135

$$$$
W_Site1_Wogonoside_D
  xed2sdf_05210316543D
 
 52 55  0  0  1  0  0  0  0  0999 V2000
    8.5595   -0.2743   24.0187 O   0  0  0  0  0  0  0  0  0  0  0  0
   10.0295   -1.6113   22.5896 O   0  0  0  0  0  0  0  0  0  0  0  0
    7.6325   -3.6933   26.2796 O   0  0  0  0  0  0  0  0  0  0  0  0
    9.1725   -3.9293   23.8657 O   0  0  0  0  0  0  0  0  0  0  0  0
    5.9975   -1.3193   26.4967 O   0  0  0  0  0  0  0  0  0  0  0  0
    7.8025    1.4197   26.3316 O   0  5  0  0  0  0  0  0  0  0  0  0
    6.1795    1.8357   24.7806 O   0  0  0  0  0  0  0  0  0  0  0  0
   11.4235    2.1527   20.1257 O   0  0  0  0  0  0  0  0  0  0  0  0
   11.3435    0.7387   22.4387 O   0  0  0  0  0  0  0  0  0  0  0  0
    8.6975   -1.2283   18.0646 O   0  0  0  0  0  0  0  0  0  0  0  0
    9.4885    0.8707   16.8097 O   0  0  0  0  0  0  0  0  0  0  0  0
    7.5765   -2.7003   25.2446 C   0  0  0  0  0  0  0  0  0  0  0  0
    8.9085   -2.6563   24.4736 C   0  0  0  0  0  0  0  0  0  0  0  0
    7.2765   -1.3153   25.8476 C   0  0  0  0  0  0  0  0  0  0  0  0
    8.8345   -1.5523   23.3997 C   0  0  0  0  0  0  0  0  0  0  0  0
    7.3005   -0.2603   24.7246 C   0  0  0  0  0  0  0  0  0  0  0  0
    7.0755    1.1027   25.3266 C   0  0  0  0  0  0  0  0  0  0  0  0
   10.0365   -0.9433   21.4326 C   0  0  0  0  0  0  0  0  0  0  0  0
   10.6985    0.2707   21.3517 C   0  0  0  0  0  0  0  0  0  0  0  0
    9.3645   -1.4403   20.3226 C   0  0  0  0  0  0  0  0  0  0  0  0
   10.7235    0.9847   20.1607 C   0  0  0  0  0  0  0  0  0  0  0  0
   10.0435    0.4767   19.0536 C   0  0  0  0  0  0  0  0  0  0  0  0
    9.3605   -0.7403   19.1456 C   0  0  0  0  0  0  0  0  0  0  0  0
   10.0735    1.2457   17.8256 C   0  0  0  0  0  0  0  0  0  0  0  0
   11.4515    2.8637   18.9506 C   0  0  0  0  0  0  0  0  0  0  0  0
   10.8075    2.4597   17.8176 C   0  0  0  0  0  0  0  0  0  0  0  0
   12.2435    4.1197   18.9656 C   0  0  0  0  0  0  0  0  0  0  0  0
   10.7185    1.8147   23.1677 C   0  0  0  0  0  0  0  0  0  0  0  0
   13.5875    4.1707   18.6217 C   0  0  0  0  0  0  0  0  0  0  0  0
   11.6135    5.2977   19.3386 C   0  0  0  0  0  0  0  0  0  0  0  0
   14.2745    5.3607   18.6556 C   0  0  0  0  0  0  0  0  0  0  0  0
   12.3015    6.4857   19.3727 C   0  0  0  0  0  0  0  0  0  0  0  0
   13.6345    6.5197   19.0306 C   0  0  0  0  0  0  0  0  0  0  0  0
    6.8425   -2.9443   24.6116 H   0  0  0  0  0  0  0  0  0  0  0  0
    9.6555   -2.4513   25.1066 H   0  0  0  0  0  0  0  0  0  0  0  0
    7.9735   -1.0933   26.5306 H   0  0  0  0  0  0  0  0  0  0  0  0
    8.0695   -1.6933   22.7706 H   0  0  0  0  0  0  0  0  0  0  0  0
    6.5755   -0.4763   24.0696 H   0  0  0  0  0  0  0  0  0  0  0  0
    7.3055   -3.3273   27.1576 H   0  0  0  0  0  0  0  0  0  0  0  0
    8.6135   -4.0643   23.0396 H   0  0  0  0  0  0  0  0  0  0  0  0
    5.9675   -1.9913   27.2446 H   0  0  0  0  0  0  0  0  0  0  0  0
    9.1665   -2.0283   17.6756 H   0  0  0  0  0  0  0  0  0  0  0  0
    8.8815   -2.3143   20.3846 H   0  0  0  0  0  0  0  0  0  0  0  0
   10.8525    3.0147   16.9876 H   0  0  0  0  0  0  0  0  0  0  0  0
    9.8565    2.0527   22.7206 H   0  0  0  0  0  0  0  0  0  0  0  0
   10.5425    1.5267   24.1087 H   0  0  0  0  0  0  0  0  0  0  0  0
   11.3245    2.6097   23.1786 H   0  0  0  0  0  0  0  0  0  0  0  0
   14.0605    3.3337   18.3476 H   0  0  0  0  0  0  0  0  0  0  0  0
   10.6455    5.2817   19.5856 H   0  0  0  0  0  0  0  0  0  0  0  0
   15.2425    5.3837   18.4046 H   0  0  0  0  0  0  0  0  0  0  0  0
   11.8345    7.3267   19.6456 H   0  0  0  0  0  0  0  0  0  0  0  0
   14.1375    7.3837   19.0556 H   0  0  0  0  0  0  0  0  0  0  0  0
  1 15  1  0
  1 16  1  0
  2 18  1  0
  6 17  1  0
  7 17  2  0
  8 21  1  0
  8 25  1  0
  9 19  1  0
  9 28  1  0
 10 23  1  0
 11 24  2  0
 12  3  1  0
 12 13  1  0
 12 14  1  0
 13  4  1  0
 13 15  1  0
 14  5  1  0
 14 16  1  0
 15  2  1  0
 16 17  1  0
 18 19  2  0
 18 20  1  0
 19 21  1  0
 20 23  2  0
 21 22  2  0
 22 23  1  0
 22 24  1  0
 24 26  1  0
 25 26  2  0
 25 27  1  0
 27 29  2  0
 27 30  1  0
 29 31  1  0
 30 32  2  0
 31 33  2  0
 32 33  1  0
  3 39  1  0
  4 40  1  0
  5 41  1  0
 10 42  1  0
 12 34  1  0
 13 35  1  0
 14 36  1  0
 15 37  1  0
 16 38  1  0
 20 43  1  0
 26 44  1  0
 28 45  1  0
 28 46  1  0
 28 47  1  0
 29 48  1  0
 30 49  1  0
 31 50  1  0
 32 51  1  0
 33 52  1  0
M  CHG  1   6  -1
M  END
>  <BioMolTech Lead Finder dG>
-5.383

>  <BioMolTech Lead Finder VSscore>
-10.346

>  <BioMolTech Lead Finder Rank score>
-10.334

>  <BioMolTech Lead Finder LE>
-0.163

>  <BioMolTech Lead Finder Structure Name>
C:\Users\Odara\AppData\Local\Temp\LeadFinder_1876_1\Ligand_1.sdf

>  <BioMolTech Lead Finder SDF id>
0

>  <BioMolTech Lead Finder Pose rank>
0

>  <BioMolTech Lead Finder version>
2001 1, 19 January 2019

>  <PUBCHEM_COMPOUND_CID>
3084961

>  <PUBCHEM_COMPOUND_CANONICALIZED>
1

>  <PUBCHEM_CACTVS_COMPLEXITY>
763

>  <PUBCHEM_CACTVS_HBOND_ACCEPTOR>
11

>  <PUBCHEM_CACTVS_HBOND_DONOR>
5

>  <PUBCHEM_CACTVS_ROTATABLE_BOND>
5

>  <PUBCHEM_CACTVS_SUBSKEYS>
AAADceB4PAAAAAAAAAAAAAAAAAAAAAAAAAA0YIEAAAAAAACBQAAAGgAACAAADBSwmAMyDoAABgCIAqDSCAICCAAkIAAIiAFGiMgdNzaGNR6ieWKl4BUPuQfK7LzOIQABCAAIQABCAAIQABCAAAAAAAAAAA==

>  <PUBCHEM_IUPAC_OPENEYE_NAME>
(2S,3S,4S,5R,6S)-3,4,5-trihydroxy-6-(5-hydroxy-8-methoxy-4-oxo-2-phenyl-chromen-7-yl)oxy-tetrahydropyran-2-carboxylic acid

>  <PUBCHEM_IUPAC_CAS_NAME>
(2S,3S,4S,5R,6S)-3,4,5-trihydroxy-6-[(5-hydroxy-8-methoxy-4-oxo-2-phenyl-1-benzopyran-7-yl)oxy]-2-oxanecarboxylic acid

>  <PUBCHEM_IUPAC_NAME_MARKUP>
(2<I>S</I>,3<I>S</I>,4<I>S</I>,5<I>R</I>,6<I>S</I>)-3,4,5-trihydroxy-6-(5-hydroxy-8-methoxy-4-oxo-2-phenylchromen-7-yl)oxyoxane-2-carboxylic acid

>  <PUBCHEM_IUPAC_NAME>
(2S,3S,4S,5R,6S)-3,4,5-trihydroxy-6-(5-hydroxy-8-methoxy-4-oxo-2-phenylchromen-7-yl)oxyoxane-2-carboxylic acid

>  <PUBCHEM_IUPAC_SYSTEMATIC_NAME>
(2S,3S,4S,5R,6S)-6-(8-methoxy-5-oxidanyl-4-oxidanylidene-2-phenyl-chromen-7-yl)oxy-3,4,5-tris(oxidanyl)oxane-2-carboxylic acid

>  <PUBCHEM_IUPAC_TRADITIONAL_NAME>
(2S,3S,4S,5R,6S)-3,4,5-trihydroxy-6-(5-hydroxy-4-keto-8-methoxy-2-phenyl-chromen-7-yl)oxy-tetrahydropyran-2-carboxylic acid

>  <PUBCHEM_IUPAC_INCHI>
InChI=1S/C22H20O11/c1-30-18-13(32-22-17(27)15(25)16(26)20(33-22)21(28)29)8-11(24)14-10(23)7-12(31-19(14)18)9-5-3-2-4-6-9/h2-8,15-17,20,22,24-27H,1H3,(H,28,29)/t15-,16-,17+,20-,22+/m0/s1

>  <PUBCHEM_IUPAC_INCHIKEY>
LNOHXHDWGCMVCO-NTKSAMNMSA-N

>  <PUBCHEM_XLOGP3_AA>
1.4

>  <PUBCHEM_EXACT_MASS>
460.100561

>  <PUBCHEM_MOLECULAR_FORMULA>
C22H20O11

>  <PUBCHEM_MOLECULAR_WEIGHT>
460.4

>  <PUBCHEM_OPENEYE_CAN_SMILES>
COC1=C(C=C(C2=C1OC(=CC2=O)C3=CC=CC=C3)O)OC4C(C(C(C(O4)C(=O)O)O)O)O

>  <PUBCHEM_OPENEYE_ISO_SMILES>
COC1=C(C=C(C2=C1OC(=CC2=O)C3=CC=CC=C3)O)O[C@H]4[C@@H]([C@H]([C@@H]([C@H](O4)C(=O)O)O)O)O

>  <PUBCHEM_CACTVS_TPSA>
172

>  <PUBCHEM_MONOISOTOPIC_WEIGHT>
460.100561

>  <PUBCHEM_TOTAL_CHARGE>
0

>  <PUBCHEM_HEAVY_ATOM_COUNT>
33

>  <PUBCHEM_ATOM_DEF_STEREO_COUNT>
5

>  <PUBCHEM_ATOM_UDEF_STEREO_COUNT>
0

>  <PUBCHEM_BOND_DEF_STEREO_COUNT>
0

>  <PUBCHEM_BOND_UDEF_STEREO_COUNT>
0

>  <PUBCHEM_ISOTOPIC_ATOM_COUNT>
0

>  <PUBCHEM_COMPONENT_COUNT>
1

>  <PUBCHEM_CACTVS_TAUTO_COUNT>
-1

>  <PUBCHEM_COORDINATE_TYPE>
1
5
255

>  <PUBCHEM_BONDANNOTATIONS>
16  17  5
18  19  8
18  20  8
19  21  8
15  2  5
20  23  8
21  22  8
22  23  8
22  24  8
24  26  8
25  26  8
27  29  8
27  30  8
29  31  8
12  3  5
30  32  8
31  33  8
32  33  8
13  4  6
14  5  6
8  21  8
8  25  8

>  <LF dG>
-5.383

>  <LF VSscore>
-10.346

>  <LF Rank Score>
-10.334

>  <LF LE>
-0.163

>  <Preferred Pose_cresset>
true

>  <Favorite_cresset>
false

>  <Protein_cresset>
6Y2F_P | 5 A | With water

>  <MW_cresset>
459.4

>  <#Atoms_cresset>
33

>  <SlogP_cresset>
1.4

>  <TPSA_cresset>
175

>  <Flexibility_cresset>
7.6

>  <#RB_cresset>
9

>  <Rof5_cresset>
1

>  <Filename_cresset>
Wogonoside.sdf

>  <Confs_cresset>
0

>  <Poses_cresset>
10

>  <_cresset_fieldpoints>
    -5      12.198539      -1.167276      23.686649     -8.9005
    -5       8.966539      -5.169276      25.464649    -11.9655
    -5       4.624539      -0.011276      26.370649     -6.8270
    -5       6.186539       3.379724      25.777649     -9.8630
    -5       7.228539       3.115724      26.761650     -9.7680
    -5       9.737539       0.696724      26.315649     -5.8395
    -5       7.909539      -0.152276      16.541649    -13.8100
    -5       9.089539       1.527724      15.103649    -11.6195
    -5      12.283539       6.007724      16.162649     -3.5670
    -5      13.360538       1.969724      21.557650     -6.6560
    -6       6.752539      -2.637276      28.633650     10.9085
    -6       7.419539      -3.586276      21.811649      9.4500
    -6       9.238539      -3.770276      18.256649      4.4905
    -6      16.498539       7.570724      18.396650      2.0535
    -6       9.541539       7.518724      20.190649      1.7445
    -6      16.540539       3.608724      17.562649      1.7955
    -6       9.248539       3.801724      20.660650      1.8360
    -6      13.091539       9.516724      19.646650      2.0290
    -7      11.744539      -0.870276      24.697649     -2.6750
    -7      10.595539      -4.240276      21.916649     -2.2510
    -7       7.791539      -5.809276      24.546650     -1.4785
    -7       9.542539      -2.923276      27.819649     -1.7320
    -7       5.029539      -3.942276      26.636650     -1.5090
    -7      10.304539      -0.022276      26.026649     -2.9200
    -7       7.522539      -2.015276      28.993649     -1.3265
    -7       6.888539      -3.566276      21.661650     -2.2170
    -7      12.795539      -1.577276      19.238649     -1.8995
    -7       4.299539      -1.849276      24.745649     -1.7060
    -7       4.188539       0.035724      25.579649     -1.6325
    -7       8.788539       3.453724      25.153650     -1.5145
    -7       9.017539       3.609724      20.668650     -2.9875
    -7       5.719539      -2.286276      22.304649     -2.0640
    -7       6.200539       0.531724      28.174650     -1.6160
    -7      13.384539       0.739724      18.153650     -2.6305
    -7       7.256539      -3.262276      18.388649     -1.3005
    -7       7.006539       0.663724      17.331650     -1.6460
    -7      10.842539      -1.247276      16.194649     -1.7930
    -7      11.780539       5.306724      15.899650     -2.0550
    -7      16.638538       3.137724      17.598650     -0.9870
    -7      16.783539       7.639724      18.428650     -0.9675
    -7      13.038539       9.775724      19.807650     -0.9670
    -7       7.499539       1.175724      21.892649     -3.5240
    -7      13.498539       2.400724      21.495649     -3.0235
    -8       7.856539      -1.788276      24.722649      5.1650
    -8      10.584539       1.573724      18.720650      5.0150
    -8      10.020539      -0.232276      20.219650      6.6130
    -8      10.328539       2.490724      23.569649      2.5050
    -8      12.940539       5.322724      18.992649      7.1520

$$$$
Site1_VTRRT_D
  xed2sdf_05210316543D
 
 92 97  0  0  1  0  0  0  0  0999 V2000
    8.3006   -7.6416   25.5286 C   0  0  0  0  0  0  0  0  0  0  0  0
    9.4566   -7.0496   25.0736 C   0  0  0  0  0  0  0  0  0  0  0  0
    9.4316   -5.7626   24.5826 C   0  0  0  0  0  0  0  0  0  0  0  0
    8.2396   -5.0726   24.5496 C   0  0  0  0  0  0  0  0  0  0  0  0
    7.0826   -5.6626   25.0036 C   0  0  0  0  0  0  0  0  0  0  0  0
    7.1126   -6.9476   25.4936 C   0  0  0  0  0  0  0  0  0  0  0  0
   10.7076   -5.1076   24.0776 C   0  0  0  0  0  0  0  0  0  0  0  0
   10.6496   -4.6056   22.6156 C   0  0  0  0  0  0  0  0  0  0  0  0
   11.9546   -4.9106   21.9326 N   0  3  0  0  0  0  0  0  0  0  0  0
   10.3886   -3.0836   22.5326 C   0  0  0  0  0  0  0  0  0  0  0  0
    9.3666   -2.7826   21.5676 O   0  0  0  0  0  0  0  0  0  0  0  0
   11.6776   -2.2866   22.2366 C   0  0  0  0  0  0  0  0  0  0  0  0
   11.3586   -0.9646   21.5056 C   0  0  0  0  0  0  0  0  0  0  0  0
   11.7326   -1.0786   20.0116 C   0  0  0  0  0  0  0  0  0  0  0  0
   10.8866   -0.2516   19.0556 C   0  0  0  0  0  0  0  0  0  0  0  0
   11.4076    0.8924   18.4916 C   0  0  0  0  0  0  0  0  0  0  0  0
   10.6486    1.6484   17.6276 C   0  0  0  0  0  0  0  0  0  0  0  0
    9.3626    1.2644   17.3246 C   0  0  0  0  0  0  0  0  0  0  0  0
    8.8376    0.1234   17.8866 C   0  0  0  0  0  0  0  0  0  0  0  0
    9.5976   -0.6326   18.7506 C   0  0  0  0  0  0  0  0  0  0  0  0
   12.1376    0.1194   22.1246 N   0  0  0  0  0  0  0  0  0  0  0  0
   11.2906    1.2894   22.5536 P   0  0  0  0  0  0  0  0  0  0  0  0
   12.1326    2.6574   22.6136 O   0  0  0  0  0  0  0  0  0  0  0  0
   10.8086    1.0984   24.0806 O   0  0  0  0  0  0  0  0  0  0  0  0
   10.1046    1.4524   21.6386 O   0  0  0  0  0  0  0  0  0  0  0  0
   11.5156    3.8094   23.2086 C   0  0  0  0  0  0  0  0  0  0  0  0
    9.4996    0.8734   24.3996 C   0  0  0  0  0  0  0  0  0  0  0  0
    9.0926   -0.4066   24.7236 C   0  0  0  0  0  0  0  0  0  0  0  0
    7.7806   -0.6576   25.0476 C   0  0  0  0  0  0  0  0  0  0  0  0
    6.8636    0.3694   25.0556 C   0  0  0  0  0  0  0  0  0  0  0  0
    7.2616    1.6484   24.7386 C   0  0  0  0  0  0  0  0  0  0  0  0
    8.5726    1.8994   24.4116 C   0  0  0  0  0  0  0  0  0  0  0  0
   11.1956    4.8804   22.1506 C   0  0  0  0  0  0  0  0  0  0  0  0
   11.2606    4.3314   20.8206 O   0  0  0  0  0  0  0  0  0  0  0  0
   11.9756    5.2214   19.9376 C   0  0  0  0  0  0  0  0  0  0  0  0
   12.1426    6.5344   20.7336 C   0  0  0  0  0  0  0  0  0  0  0  0
   12.1816    6.0604   22.1896 C   0  0  0  0  0  0  0  0  0  0  0  0
   13.5126    5.6354   22.5226 O   0  0  0  0  0  0  0  0  0  0  0  0
   13.3206    7.2754   20.3796 O   0  0  0  0  0  0  0  0  0  0  0  0
   13.2796    4.5494   19.5056 C   0  0  0  0  0  0  0  0  0  0  0  0
   11.1466    5.4684   18.7526 C   0  0  0  0  0  0  0  0  0  0  0  0
   10.5046    5.6594   17.8356 N   0  0  0  0  0  0  0  0  0  0  0  0
   14.1156    5.0974   18.5896 N   0  0  0  0  0  0  0  0  0  0  0  0
   15.1486    4.2204   18.4806 C   0  0  0  0  0  0  0  0  0  0  0  0
   14.9736    3.1494   19.2976 C   0  0  0  0  0  0  0  0  0  0  0  0
   13.7616    3.3714   19.9556 C   0  0  0  0  0  0  0  0  0  0  0  0
   14.0886    6.2474   17.8536 N   0  0  0  0  0  0  0  0  0  0  0  0
   15.0936    6.4754   17.0416 C   0  0  0  0  0  0  0  0  0  0  0  0
   16.1856    5.6664   16.8506 N   0  0  0  0  0  0  0  0  0  0  0  0
   16.1976    4.5414   17.5796 C   0  0  0  0  0  0  0  0  0  0  0  0
   17.2736    3.7014   17.4206 N   0  0  0  0  0  0  0  0  0  0  0  0
    9.8916   -5.0756   22.1646 H   0  0  0  0  0  0  0  0  0  0  0  0
   10.0626   -2.7946   23.4326 H   0  0  0  0  0  0  0  0  0  0  0  0
   10.3806   -0.7716   21.5786 H   0  0  0  0  0  0  0  0  0  0  0  0
   10.2736    5.1994   22.3696 H   0  0  0  0  0  0  0  0  0  0  0  0
   11.4026    7.1804   20.5446 H   0  0  0  0  0  0  0  0  0  0  0  0
   11.9426    6.7524   22.8716 H   0  0  0  0  0  0  0  0  0  0  0  0
    8.3236   -8.5766   25.8836 H   0  0  0  0  0  0  0  0  0  0  0  0
   10.3186   -7.5556   25.1006 H   0  0  0  0  0  0  0  0  0  0  0  0
    8.2156   -4.1376   24.1946 H   0  0  0  0  0  0  0  0  0  0  0  0
    6.2196   -5.1576   24.9776 H   0  0  0  0  0  0  0  0  0  0  0  0
    6.2726   -7.3776   25.8236 H   0  0  0  0  0  0  0  0  0  0  0  0
   11.4496   -5.7736   24.1506 H   0  0  0  0  0  0  0  0  0  0  0  0
   10.8486   -4.2956   24.6446 H   0  0  0  0  0  0  0  0  0  0  0  0
   12.0846   -5.8036   21.8136 H   0  0  0  0  0  0  0  0  0  0  0  0
   12.0086   -4.5196   21.1126 H   0  0  0  0  0  0  0  0  0  0  0  0
   12.6646   -4.6076   22.4156 H   0  0  0  0  0  0  0  0  0  0  0  0
    8.8026   -3.5916   21.3686 H   0  0  0  0  0  0  0  0  0  0  0  0
   12.2826   -2.8406   21.6656 H   0  0  0  0  0  0  0  0  0  0  0  0
   12.1226   -2.0686   23.1056 H   0  0  0  0  0  0  0  0  0  0  0  0
   11.6526   -2.0386   19.7456 H   0  0  0  0  0  0  0  0  0  0  0  0
   12.6616   -0.7166   19.9346 H   0  0  0  0  0  0  0  0  0  0  0  0
   12.3416    1.1734   18.7096 H   0  0  0  0  0  0  0  0  0  0  0  0
   11.0316    2.4774   17.2196 H   0  0  0  0  0  0  0  0  0  0  0  0
    8.8106    1.8124   16.6966 H   0  0  0  0  0  0  0  0  0  0  0  0
    7.9026   -0.1576   17.6676 H   0  0  0  0  0  0  0  0  0  0  0  0
    9.2136   -1.4606   19.1586 H   0  0  0  0  0  0  0  0  0  0  0  0
   12.6126   -0.2436   22.9586 H   0  0  0  0  0  0  0  0  0  0  0  0
   12.1356    4.1964   23.8916 H   0  0  0  0  0  0  0  0  0  0  0  0
   10.6576    3.5224   23.6356 H   0  0  0  0  0  0  0  0  0  0  0  0
    9.7566   -1.1546   24.7216 H   0  0  0  0  0  0  0  0  0  0  0  0
    7.4916   -1.5866   25.2776 H   0  0  0  0  0  0  0  0  0  0  0  0
    5.9086    0.1864   25.2916 H   0  0  0  0  0  0  0  0  0  0  0  0
    6.5966    2.3944   24.7456 H   0  0  0  0  0  0  0  0  0  0  0  0
    8.8586    2.8304   24.1816 H   0  0  0  0  0  0  0  0  0  0  0  0
   14.0436    6.3844   22.9336 H   0  0  0  0  0  0  0  0  0  0  0  0
   13.1656    7.8404   19.5616 H   0  0  0  0  0  0  0  0  0  0  0  0
   15.5856    2.3654   19.4056 H   0  0  0  0  0  0  0  0  0  0  0  0
   13.3326    2.7724   20.6316 H   0  0  0  0  0  0  0  0  0  0  0  0
   15.0616    7.3224   16.5096 H   0  0  0  0  0  0  0  0  0  0  0  0
   17.9156    3.9144   16.8576 H   0  0  0  0  0  0  0  0  0  0  0  0
   17.3246    2.9504   17.8776 H   0  0  0  0  0  0  0  0  0  0  0  0
  1  2  2  0
  2  3  1  0
  3  4  2  0
  3  7  1  0
  4  5  1  0
  5  6  2  0
  6  1  1  0
  7  8  1  0
  8  9  1  0
  8 10  1  0
 10 11  1  0
 10 12  1  0
 12 13  1  0
 13 14  1  0
 13 21  1  0
 14 15  1  0
 15 16  2  0
 16 17  1  0
 17 18  2  0
 18 19  1  0
 19 20  2  0
 20 15  1  0
 21 22  1  0
 22 23  1  0
 22 24  1  0
 22 25  2  0
 23 26  1  0
 24 27  1  0
 27 28  2  0
 28 29  1  0
 29 30  2  0
 30 31  1  0
 31 32  2  0
 32 27  1  0
 33 26  1  0
 33 34  1  0
 34 35  1  0
 35 36  1  0
 35 40  1  0
 35 41  1  0
 36 37  1  0
 36 39  1  0
 37 33  1  0
 37 38  1  0
 40 43  1  0
 41 42  3  0
 43 44  1  0
 43 47  1  0
 44 45  2  0
 45 46  1  0
 46 40  2  0
 47 48  2  0
 48 49  1  0
 49 50  2  0
 50 44  1  0
 50 51  1  0
  1 58  1  0
  2 59  1  0
  4 60  1  0
  5 61  1  0
  6 62  1  0
  7 63  1  0
  7 64  1  0
  8 52  1  0
  9 65  1  0
  9 66  1  0
  9 67  1  0
 10 53  1  0
 11 68  1  0
 12 69  1  0
 12 70  1  0
 13 54  1  0
 14 71  1  0
 14 72  1  0
 16 73  1  0
 17 74  1  0
 18 75  1  0
 19 76  1  0
 20 77  1  0
 21 78  1  0
 26 79  1  0
 26 80  1  0
 28 81  1  0
 29 82  1  0
 30 83  1  0
 31 84  1  0
 32 85  1  0
 33 55  1  0
 36 56  1  0
 37 57  1  0
 38 86  1  0
 39 87  1  0
 45 88  1  0
 46 89  1  0
 48 90  1  0
 51 91  1  0
 51 92  1  0
M  CHG  1   9   1
M  END
>  <BioMolTech Lead Finder dG>
-6.737

>  <BioMolTech Lead Finder VSscore>
-12.727

>  <BioMolTech Lead Finder Rank score>
-14.013

>  <BioMolTech Lead Finder LE>
-0.132

>  <BioMolTech Lead Finder Structure Name>
C:\Users\Odara\AppData\Local\Temp\LeadFinder_14332_1\Ligand_1.sdf

>  <BioMolTech Lead Finder SDF id>
0

>  <BioMolTech Lead Finder Pose rank>
0

>  <BioMolTech Lead Finder version>
2001 1, 19 January 2019

>  <LF dG>
-6.737

>  <LF VSscore>
-12.727

>  <LF Rank Score>
-14.013

>  <LF LE>
-0.132

>  <Preferred Pose_cresset>
true

>  <Favorite_cresset>
false

>  <Protein_cresset>
6Y2F_P | 5 A | With water

>  <MW_cresset>
714.7

>  <#Atoms_cresset>
51

>  <SlogP_cresset>
4

>  <TPSA_cresset>
225.1

>  <Flexibility_cresset>
17.1

>  <#RB_cresset>
18

>  <Rof5_cresset>
3

>  <Filename_cresset>
VTRRT-13V2.1.sdf

>  <Confs_cresset>
0

>  <Poses_cresset>
10

>  <_cresset_fieldpoints>
    -5       8.697601      -5.416597      27.771584     -2.1195
    -5       8.994602       1.148403      27.479584     -3.4870
    -5       9.797602       2.812403      20.153584    -11.7205
    -5      11.134602      -0.795597      15.864584     -5.7390
    -5      10.471601       5.164403      15.853584     -8.9455
    -5      14.269602       3.944403      22.607584    -12.4770
    -5      15.003601       6.407403      20.700584    -12.0535
    -5      11.918602       1.566403      25.722584     -4.1390
    -5       9.062601       4.787403      16.696583     -8.7970
    -6      13.459601      -3.778597      24.228584      8.4740
    -6       8.114601      -5.066597      20.748585      8.0510
    -6       6.388602      -9.815598      26.650583      3.8070
    -6       5.687602      -2.958597      24.886583      5.3205
    -6       4.074602      -5.782597      25.605583      3.9325
    -6      12.118602      -7.683598      22.946585      7.2145
    -6      13.516602      -0.840597      24.235584      7.7295
    -6      17.551601       1.231403      18.769585      8.4585
    -6       8.938601       5.137403      24.307583      6.1145
    -6      13.674602       7.697403      24.154583      6.1525
    -6      11.777601      -2.307597      25.319584      7.0950
    -6       4.196601       1.984403      25.480583      2.9525
    -6       9.704601       7.634403      22.335585      6.2900
    -6      11.853601       8.974402      19.176584      6.4410
    -7       8.210602      -7.073597      21.790585     -2.3055
    -7      10.587602     -10.175597      25.601583     -1.0010
    -7      12.409601      -0.628597      25.116585     -2.9605
    -7      10.842602      -9.087597      27.320583     -0.9950
    -7       7.520601      -5.533597      21.419584     -2.1905
    -7       7.195601      -2.544597      22.514584     -3.2535
    -7       3.914602      -5.994597      26.155584     -0.9750
    -7      10.219602      -7.744597      21.892584     -2.1995
    -7      10.003602      -3.939597      19.443584     -3.3515
    -7       6.141602      -9.915597      26.830584     -0.9685
    -7      14.030602      -3.409597      19.981585     -2.0210
    -7      11.767602      -2.138597      25.608583     -2.8485
    -7      14.601602       0.035403      18.391584     -2.3710
    -7      13.470602      -3.622597      24.668583     -2.1475
    -7      13.695601      -6.718597      23.596584     -1.5275
    -7      11.409601      -1.393597      15.892584     -1.8475
    -7      14.635601       3.585402      23.011583     -2.8385
    -7       9.277601       3.083403      20.310583     -4.5530
    -7      12.709601       4.004403      16.271584     -3.1760
    -7       6.118602       1.469403      16.353584     -0.9725
    -7       8.040602       0.035403      21.505585     -4.3655
    -7      14.493602       0.434403      21.330584     -3.1695
    -7      12.297602       1.993403      25.767584     -2.2105
    -7       8.906602       5.267403      24.656584     -2.0310
    -7      13.551601       5.939403      25.120584     -1.5800
    -7       8.906602       1.201403      27.840584     -1.7150
    -7       9.801601      -3.000597      26.599583     -2.7955
    -7       3.939601       2.084403      25.300583     -0.9695
    -7       8.750602       6.541403      20.697584     -1.9470
    -7      15.449602       6.425403      21.022583     -3.2525
    -7      12.286602       8.131403      17.562584     -2.0330
    -7      18.080601       6.093403      15.296583     -1.1835
    -7      18.187601       3.796403      20.218584     -1.5255
    -8       8.275601      -6.352597      25.035583      7.2000
    -8       9.448602      -5.722597      24.532583      5.7570
    -8       9.734602      -4.935597      23.834583      5.8020
    -8       8.141602       0.612403      24.734585      7.0395
    -8      11.592602      -1.773597      21.077583      5.2155
    -8      10.127602       0.503403      18.191584      7.1835
    -8      11.282601      -2.085598      22.025583      4.9435
    -8      11.493602       6.014403      21.459583      4.5445
    -8      14.316602       3.515403      19.452583      4.9325
    -8      11.429602       5.111403      22.957584      4.3115
    -8      11.161602      -3.338597      22.917583      4.8650
    -8      12.082602       5.695403      19.743584      3.9405
    -8      15.092602       7.548403      16.351583      1.2385

$$$$
W_Site1_VTRRT_D
  xed2sdf_05210316543D
 
 92 97  0  0  1  0  0  0  0  0999 V2000
    9.3810    0.1815   16.7136 C   0  0  0  0  0  0  0  0  0  0  0  0
    9.9070    0.9335   17.7396 C   0  0  0  0  0  0  0  0  0  0  0  0
   10.7940    0.3685   18.6306 C   0  0  0  0  0  0  0  0  0  0  0  0
   11.1490   -0.9545   18.4876 C   0  0  0  0  0  0  0  0  0  0  0  0
   10.6240   -1.7075   17.4616 C   0  0  0  0  0  0  0  0  0  0  0  0
    9.7390   -1.1395   16.5746 C   0  0  0  0  0  0  0  0  0  0  0  0
   11.3750    1.1965   19.7666 C   0  0  0  0  0  0  0  0  0  0  0  0
   10.6840    1.0015   21.1366 C   0  0  0  0  0  0  0  0  0  0  0  0
    9.5940    2.0265   21.2956 N   0  3  0  0  0  0  0  0  0  0  0  0
   11.6760    1.1435   22.3146 C   0  0  0  0  0  0  0  0  0  0  0  0
   12.5870    2.2345   22.0986 O   0  0  0  0  0  0  0  0  0  0  0  0
   12.4420   -0.1685   22.5926 C   0  0  0  0  0  0  0  0  0  0  0  0
   12.5910   -0.4135   24.1096 C   0  0  0  0  0  0  0  0  0  0  0  0
   14.0850   -0.4815   24.4946 C   0  0  0  0  0  0  0  0  0  0  0  0
   14.6220    0.7165   25.2636 C   0  0  0  0  0  0  0  0  0  0  0  0
   15.5210    1.5705   24.6636 C   0  0  0  0  0  0  0  0  0  0  0  0
   16.0150    2.6555   25.3526 C   0  0  0  0  0  0  0  0  0  0  0  0
   15.6110    2.8905   26.6466 C   0  0  0  0  0  0  0  0  0  0  0  0
   14.7130    2.0395   27.2496 C   0  0  0  0  0  0  0  0  0  0  0  0
   14.2210    0.9555   26.5606 C   0  0  0  0  0  0  0  0  0  0  0  0
   11.9400   -1.6875   24.4496 N   0  0  0  0  0  0  0  0  0  0  0  0
   10.7060   -1.5165   25.2986 P   0  0  0  0  0  0  0  0  0  0  0  0
   10.3450   -2.8505   26.1186 O   0  0  0  0  0  0  0  0  0  0  0  0
    9.4100   -1.3095   24.3616 O   0  0  0  0  0  0  0  0  0  0  0  0
   10.8680   -0.3555   26.2456 O   0  0  0  0  0  0  0  0  0  0  0  0
    8.9590   -3.1785   26.3056 C   0  0  0  0  0  0  0  0  0  0  0  0
    8.5260   -0.2875   24.5706 C   0  0  0  0  0  0  0  0  0  0  0  0
    8.9310    1.0135   24.3416 C   0  0  0  0  0  0  0  0  0  0  0  0
    8.0600    2.0575   24.5446 C   0  0  0  0  0  0  0  0  0  0  0  0
    6.7750    1.8105   24.9736 C   0  0  0  0  0  0  0  0  0  0  0  0
    6.3630    0.5165   25.1996 C   0  0  0  0  0  0  0  0  0  0  0  0
    7.2330   -0.5275   24.9986 C   0  0  0  0  0  0  0  0  0  0  0  0
    8.7170   -4.6895   26.1406 C   0  0  0  0  0  0  0  0  0  0  0  0
    9.9000   -5.3555   25.6596 O   0  0  0  0  0  0  0  0  0  0  0  0
    9.5690   -6.2855   24.6076 C   0  0  0  0  0  0  0  0  0  0  0  0
    8.0270   -6.3785   24.6196 C   0  0  0  0  0  0  0  0  0  0  0  0
    7.5960   -5.0015   25.1346 C   0  0  0  0  0  0  0  0  0  0  0  0
    7.5780   -4.0635   24.0466 O   0  0  0  0  0  0  0  0  0  0  0  0
    7.4590   -6.6705   23.3326 O   0  0  0  0  0  0  0  0  0  0  0  0
   10.1830   -5.7915   23.2976 C   0  0  0  0  0  0  0  0  0  0  0  0
   10.1410   -7.5945   24.9436 C   0  0  0  0  0  0  0  0  0  0  0  0
   10.5830   -8.6075   25.2036 N   0  0  0  0  0  0  0  0  0  0  0  0
   10.3770   -6.6035   22.2286 N   0  0  0  0  0  0  0  0  0  0  0  0
   10.9280   -5.8095   21.2736 C   0  0  0  0  0  0  0  0  0  0  0  0
   11.0830   -4.5355   21.7196 C   0  0  0  0  0  0  0  0  0  0  0  0
   10.5980   -4.5355   23.0306 C   0  0  0  0  0  0  0  0  0  0  0  0
   10.1340   -7.9265   21.9896 N   0  0  0  0  0  0  0  0  0  0  0  0
   10.4490   -8.4005   20.8076 C   0  0  0  0  0  0  0  0  0  0  0  0
   11.0070   -7.6955   19.7706 N   0  0  0  0  0  0  0  0  0  0  0  0
   11.2400   -6.3995   20.0206 C   0  0  0  0  0  0  0  0  0  0  0  0
   11.7980   -5.6555   19.0086 N   0  0  0  0  0  0  0  0  0  0  0  0
   10.3090    0.0745   21.1566 H   0  0  0  0  0  0  0  0  0  0  0  0
   11.1330    1.3475   23.1286 H   0  0  0  0  0  0  0  0  0  0  0  0
   12.1630    0.3385   24.6116 H   0  0  0  0  0  0  0  0  0  0  0  0
    8.4580   -5.0155   27.0496 H   0  0  0  0  0  0  0  0  0  0  0  0
    7.7040   -7.1355   25.1876 H   0  0  0  0  0  0  0  0  0  0  0  0
    6.6810   -4.9625   25.5366 H   0  0  0  0  0  0  0  0  0  0  0  0
    8.7370    0.5955   16.0696 H   0  0  0  0  0  0  0  0  0  0  0  0
    9.6450    1.8935   17.8386 H   0  0  0  0  0  0  0  0  0  0  0  0
   11.7920   -1.3695   19.1306 H   0  0  0  0  0  0  0  0  0  0  0  0
   10.8850   -2.6675   17.3616 H   0  0  0  0  0  0  0  0  0  0  0  0
    9.3570   -1.6855   15.8296 H   0  0  0  0  0  0  0  0  0  0  0  0
   11.3040    2.1625   19.5156 H   0  0  0  0  0  0  0  0  0  0  0  0
   12.3180    0.8875   19.8836 H   0  0  0  0  0  0  0  0  0  0  0  0
    8.7630    1.6615   21.2376 H   0  0  0  0  0  0  0  0  0  0  0  0
    9.6450    2.4545   22.0976 H   0  0  0  0  0  0  0  0  0  0  0  0
    9.6410    2.6685   20.6516 H   0  0  0  0  0  0  0  0  0  0  0  0
   12.1770    3.1125   22.3696 H   0  0  0  0  0  0  0  0  0  0  0  0
   13.3500   -0.1125   22.1776 H   0  0  0  0  0  0  0  0  0  0  0  0
   11.9240   -0.9275   22.1986 H   0  0  0  0  0  0  0  0  0  0  0  0
   14.6170   -0.5725   23.6526 H   0  0  0  0  0  0  0  0  0  0  0  0
   14.1730   -1.2625   25.1126 H   0  0  0  0  0  0  0  0  0  0  0  0
   15.8170    1.4015   23.7236 H   0  0  0  0  0  0  0  0  0  0  0  0
   16.6670    3.2725   24.9126 H   0  0  0  0  0  0  0  0  0  0  0  0
   15.9680    3.6785   27.1476 H   0  0  0  0  0  0  0  0  0  0  0  0
   14.4190    2.2095   28.1906 H   0  0  0  0  0  0  0  0  0  0  0  0
   13.5690    0.3375   27.0016 H   0  0  0  0  0  0  0  0  0  0  0  0
   11.6580   -2.1615   23.5846 H   0  0  0  0  0  0  0  0  0  0  0  0
    8.4120   -2.6825   25.6316 H   0  0  0  0  0  0  0  0  0  0  0  0
    8.6940   -2.9165   27.2336 H   0  0  0  0  0  0  0  0  0  0  0  0
    9.8620    1.1965   24.0266 H   0  0  0  0  0  0  0  0  0  0  0  0
    8.3590    2.9975   24.3806 H   0  0  0  0  0  0  0  0  0  0  0  0
    6.1420    2.5705   25.1216 H   0  0  0  0  0  0  0  0  0  0  0  0
    5.4290    0.3365   25.5086 H   0  0  0  0  0  0  0  0  0  0  0  0
    6.9310   -1.4665   25.1646 H   0  0  0  0  0  0  0  0  0  0  0  0
    7.8710   -4.4945   23.1866 H   0  0  0  0  0  0  0  0  0  0  0  0
    7.4380   -5.8525   22.7476 H   0  0  0  0  0  0  0  0  0  0  0  0
   11.4640   -3.7605   21.2156 H   0  0  0  0  0  0  0  0  0  0  0  0
   10.5660   -3.7535   23.6526 H   0  0  0  0  0  0  0  0  0  0  0  0
   10.2650   -9.3705   20.6466 H   0  0  0  0  0  0  0  0  0  0  0  0
   11.9860   -6.0365   18.2376 H   0  0  0  0  0  0  0  0  0  0  0  0
   11.9690   -4.7995   19.1266 H   0  0  0  0  0  0  0  0  0  0  0  0
  1  2  2  0
  2  3  1  0
  3  4  2  0
  3  7  1  0
  4  5  1  0
  5  6  2  0
  6  1  1  0
  7  8  1  0
  8  9  1  0
  8 10  1  0
 10 11  1  0
 10 12  1  0
 12 13  1  0
 13 14  1  0
 13 21  1  0
 14 15  1  0
 15 16  2  0
 16 17  1  0
 17 18  2  0
 18 19  1  0
 19 20  2  0
 20 15  1  0
 21 22  1  0
 22 23  1  0
 22 24  1  0
 22 25  2  0
 23 26  1  0
 24 27  1  0
 27 28  2  0
 28 29  1  0
 29 30  2  0
 30 31  1  0
 31 32  2  0
 32 27  1  0
 33 26  1  0
 33 34  1  0
 34 35  1  0
 35 36  1  0
 35 40  1  0
 35 41  1  0
 36 37  1  0
 36 39  1  0
 37 33  1  0
 37 38  1  0
 40 43  1  0
 41 42  3  0
 43 44  1  0
 43 47  1  0
 44 45  2  0
 45 46  1  0
 46 40  2  0
 47 48  2  0
 48 49  1  0
 49 50  2  0
 50 44  1  0
 50 51  1  0
  1 58  1  0
  2 59  1  0
  4 60  1  0
  5 61  1  0
  6 62  1  0
  7 63  1  0
  7 64  1  0
  8 52  1  0
  9 65  1  0
  9 66  1  0
  9 67  1  0
 10 53  1  0
 11 68  1  0
 12 69  1  0
 12 70  1  0
 13 54  1  0
 14 71  1  0
 14 72  1  0
 16 73  1  0
 17 74  1  0
 18 75  1  0
 19 76  1  0
 20 77  1  0
 21 78  1  0
 26 79  1  0
 26 80  1  0
 28 81  1  0
 29 82  1  0
 30 83  1  0
 31 84  1  0
 32 85  1  0
 33 55  1  0
 36 56  1  0
 37 57  1  0
 38 86  1  0
 39 87  1  0
 45 88  1  0
 46 89  1  0
 48 90  1  0
 51 91  1  0
 51 92  1  0
M  CHG  1   9   1
M  END
>  <BioMolTech Lead Finder dG>
-7.994

>  <BioMolTech Lead Finder VSscore>
-13.921

>  <BioMolTech Lead Finder Rank score>
-14.368

>  <BioMolTech Lead Finder LE>
-0.157

>  <BioMolTech Lead Finder Structure Name>
C:\Users\Odara\AppData\Local\Temp\LeadFinder_13036_1\Ligand_1.sdf

>  <BioMolTech Lead Finder SDF id>
0

>  <BioMolTech Lead Finder Pose rank>
0

>  <BioMolTech Lead Finder version>
2001 1, 19 January 2019

>  <LF dG>
-7.994

>  <LF VSscore>
-13.921

>  <LF Rank Score>
-14.368

>  <LF LE>
-0.157

>  <Preferred Pose_cresset>
true

>  <Favorite_cresset>
false

>  <Protein_cresset>
6Y2F_P | 5 A | With water

>  <MW_cresset>
714.7

>  <#Atoms_cresset>
51

>  <SlogP_cresset>
4

>  <TPSA_cresset>
225.1

>  <Flexibility_cresset>
17.1

>  <#RB_cresset>
18

>  <Rof5_cresset>
3

>  <Filename_cresset>
VTRRT-13V2.1.sdf

>  <Confs_cresset>
0

>  <Poses_cresset>
10

>  <_cresset_fieldpoints>
    -5      12.424036       0.562459      15.875556     -1.6170
    -5       7.973036      -8.356541      22.485556     -8.1290
    -5      14.336036       2.245459      21.648556     -4.9230
    -5      11.614036      -4.363541      26.345556     -9.5860
    -5      17.205036       0.070459      26.955555     -4.2720
    -5      10.096036       1.157459      27.380556     -2.1510
    -5       6.275036      -2.839541      23.426556     -1.7155
    -5      11.377036      -9.938541      23.845556    -10.1870
    -6      10.759036       3.702459      23.372557     12.8265
    -6       7.736036      -0.772541      14.217556      4.2960
    -6       9.779036       3.929459      18.951557      7.8190
    -6       7.524036      -4.645541      21.501556     10.8705
    -6      12.809036      -3.111541      19.685556     13.6040
    -6       7.888036      -0.303541      20.869556      4.2175
    -6      10.135036      -1.964541      21.768557      8.1120
    -6      17.501036       3.144459      22.640556      3.0700
    -6      15.211036       4.525459      29.271557      2.9910
    -6       6.052036      -2.902541      26.929556      6.3450
    -6      17.383036       5.436459      25.922556      3.1825
    -6       3.821036       2.254459      25.827557      4.3280
    -6       6.495036      -6.313541      27.506556      5.6740
    -7       7.420036       2.310459      19.261557     -1.8835
    -7       9.991035       4.205459      18.665556     -1.7255
    -7       9.166036      -1.888541      21.936556     -4.4165
    -7       7.570036      -0.737541      13.991556     -0.9685
    -7      12.853036       0.636459      15.924556     -1.8320
    -7      13.678036      -3.395541      23.353556     -3.0785
    -7      17.452036      -0.248541      26.902555     -1.8355
    -7      14.787036       1.829459      21.386557     -2.8610
    -7      11.420036       4.406459      20.799557     -2.0865
    -7      17.744036       5.479459      26.112556     -0.9685
    -7      13.222036      -2.929541      26.778557     -2.3220
    -7       9.000036      -0.041541      27.842556     -2.8185
    -7      11.865036       2.832459      25.055555     -3.9305
    -7      15.278036       4.306459      29.713556     -0.9690
    -7      12.162036      -4.457541      25.897556     -3.4725
    -7      13.164036      -2.157541      27.337555     -2.4965
    -7       5.815036      -2.815541      26.965555     -2.3075
    -7       7.368036       3.707459      21.795555     -1.8875
    -7       3.572036       2.279459      26.001556     -0.9685
    -7       8.414036      -7.565541      27.748556     -1.8925
    -7       7.987036      -8.969541      22.822556     -2.3075
    -7       5.804036      -2.885541      23.233557     -2.1830
    -7       7.761036      -6.468541      20.759556     -2.5245
    -7       7.787036      -4.637541      20.938557     -2.5310
    -7       5.689036      -4.379541      22.615557     -1.8310
    -7      12.869036      -7.762541      23.146557     -2.3840
    -7      11.293036      -8.506540      17.433556     -1.1880
    -7      13.404036      -2.428541      20.561556     -3.0430
    -8      10.268036      -0.383541      17.607555      7.1975
    -8      11.547036       0.287459      21.769556      5.2215
    -8      15.114037       1.801459      25.952557      7.1945
    -8      10.772036       0.333459      18.626556      5.7370
    -8       7.627036       0.789459      24.774555      7.0465
    -8      12.133036       0.206459      23.102556      5.2530
    -8      13.315036      -0.061541      23.627556      5.3535
    -8      10.765036      -4.832541      22.351557      4.9435
    -8       8.155036      -5.750541      25.488556      4.5730
    -8       9.295036      -6.593541      24.354555      3.9515
    -8       8.056036      -4.099541      26.156555      4.3575
    -8      10.231036      -9.631540      20.556557      1.2365

$$$$
Site1_NHC_D
  xed2sdf_05210316543D
 
 31 32  0  0  1  0  0  0  0  0999 V2000
   10.8607    3.7091   19.7193 O   0  0  0  0  0  0  0  0  0  0  0  0
   14.1127    2.3871   18.9973 O   0  0  0  0  0  0  0  0  0  0  0  0
   14.0777    4.5831   20.3993 O   0  0  0  0  0  0  0  0  0  0  0  0
   11.4847    6.3631   18.1133 O   0  0  0  0  0  0  0  0  0  0  0  0
   10.2297    3.1431   17.2093 O   0  0  0  0  0  0  0  0  0  0  0  0
    8.0387   -1.7279   16.5723 O   0  0  0  0  0  0  0  0  0  0  0  0
   11.0537    1.5731   18.6133 N   0  0  0  0  0  0  0  0  0  0  0  0
    9.7577    1.0941   16.6593 N   0  0  0  0  0  0  0  0  0  0  0  0
    9.3147   -1.1749   16.2003 N   0  0  0  0  0  0  0  0  0  0  0  0
   12.9367    3.1761   18.7683 C   0  0  0  0  0  0  0  0  0  0  0  0
   13.0617    4.5771   19.3863 C   0  0  0  0  0  0  0  0  0  0  0  0
   11.7067    2.5781   19.4623 C   0  0  0  0  0  0  0  0  0  0  0  0
   11.6827    4.8471   20.0193 C   0  0  0  0  0  0  0  0  0  0  0  0
   11.0577    6.1371   19.4653 C   0  0  0  0  0  0  0  0  0  0  0  0
   11.1767    0.2731   18.9133 C   0  0  0  0  0  0  0  0  0  0  0  0
   10.3647    1.9551   17.5193 C   0  0  0  0  0  0  0  0  0  0  0  0
   10.5957   -0.6389   18.1103 C   0  0  0  0  0  0  0  0  0  0  0  0
    9.8667   -0.2179   16.9533 C   0  0  0  0  0  0  0  0  0  0  0  0
   12.8397    3.2021   17.7733 H   0  0  0  0  0  0  0  0  0  0  0  0
   13.3137    5.2701   18.7113 H   0  0  0  0  0  0  0  0  0  0  0  0
   11.9357    2.0911   20.3053 H   0  0  0  0  0  0  0  0  0  0  0  0
   11.7687    4.9761   21.0073 H   0  0  0  0  0  0  0  0  0  0  0  0
   13.9527    1.4181   18.7773 H   0  0  0  0  0  0  0  0  0  0  0  0
   13.8877    3.8981   21.1113 H   0  0  0  0  0  0  0  0  0  0  0  0
   11.9027    7.2711   18.0083 H   0  0  0  0  0  0  0  0  0  0  0  0
    7.9947   -2.7129   16.3733 H   0  0  0  0  0  0  0  0  0  0  0  0
    9.7267   -1.4689   15.4813 H   0  0  0  0  0  0  0  0  0  0  0  0
   10.0617    6.0591   19.4883 H   0  0  0  0  0  0  0  0  0  0  0  0
   11.3547    6.9061   20.0303 H   0  0  0  0  0  0  0  0  0  0  0  0
   11.6917   -0.0159   19.7203 H   0  0  0  0  0  0  0  0  0  0  0  0
   10.6737   -1.6129   18.3233 H   0  0  0  0  0  0  0  0  0  0  0  0
  1 12  1  0
  1 13  1  0
  4 14  1  0
  5 16  2  0
  6  9  1  0
  7 15  1  0
  7 16  1  0
  8 16  1  0
  8 18  2  0
  9 18  1  0
 10  2  1  0
 10 11  1  0
 10 12  1  0
 11  3  1  0
 11 13  1  0
 12  7  1  0
 13 14  1  0
 15 17  2  0
 17 18  1  0
  2 23  1  0
  3 24  1  0
  4 25  1  0
  6 26  1  0
  9 27  1  0
 10 19  1  0
 11 20  1  0
 12 21  1  0
 13 22  1  0
 14 28  1  0
 14 29  1  0
 15 30  1  0
 17 31  1  0
M  END
>  <BioMolTech Lead Finder dG>
-5.723

>  <BioMolTech Lead Finder VSscore>
-7.491

>  <BioMolTech Lead Finder Rank score>
-8.591

>  <BioMolTech Lead Finder LE>
-0.318

>  <BioMolTech Lead Finder Structure Name>
C:\Users\Odara\AppData\Local\Temp\LeadFinder_11448_1\Ligand_1.sdf

>  <BioMolTech Lead Finder SDF id>
0

>  <BioMolTech Lead Finder Pose rank>
0

>  <BioMolTech Lead Finder version>
2001 1, 19 January 2019

>  <PUBCHEM_COMPOUND_CID>
197020

>  <PUBCHEM_COMPOUND_CANONICALIZED>
1

>  <PUBCHEM_CACTVS_COMPLEXITY>
398

>  <PUBCHEM_CACTVS_HBOND_ACCEPTOR>
6

>  <PUBCHEM_CACTVS_HBOND_DONOR>
5

>  <PUBCHEM_CACTVS_ROTATABLE_BOND>
3

>  <PUBCHEM_CACTVS_SUBSKEYS>
AAADccBzOAAAAAAAAAAAAAAAAAAAASAAAAAgAAAAAAAAAAAAAAAAHgAUCAAACBThgAYBAANQBgCoACJmdACAAAEAAgAoAAAYABCDEAIAgAAOQAAHFgITAADwMAIAAAAAAAAAAAAAAAAAAAAAAAAAAAAAAA==

>  <PUBCHEM_IUPAC_OPENEYE_NAME>
1-[(2R,3R,4S,5R)-3,4-dihydroxy-5-(hydroxymethyl)tetrahydrofuran-2-yl]-4-(hydroxyamino)pyrimidin-2-one

>  <PUBCHEM_IUPAC_CAS_NAME>
1-[(2R,3R,4S,5R)-3,4-dihydroxy-5-(hydroxymethyl)-2-oxolanyl]-4-(hydroxyamino)-2-pyrimidinone

>  <PUBCHEM_IUPAC_NAME_MARKUP>
1-[(2<I>R</I>,3<I>R</I>,4<I>S</I>,5<I>R</I>)-3,4-dihydroxy-5-(hydroxymethyl)oxolan-2-yl]-4-(hydroxyamino)pyrimidin-2-one

>  <PUBCHEM_IUPAC_NAME>
1-[(2R,3R,4S,5R)-3,4-dihydroxy-5-(hydroxymethyl)oxolan-2-yl]-4-(hydroxyamino)pyrimidin-2-one

>  <PUBCHEM_IUPAC_SYSTEMATIC_NAME>
1-[(2R,3R,4S,5R)-5-(hydroxymethyl)-3,4-bis(oxidanyl)oxolan-2-yl]-4-(oxidanylamino)pyrimidin-2-one

>  <PUBCHEM_IUPAC_TRADITIONAL_NAME>
1-[(2R,3R,4S,5R)-3,4-dihydroxy-5-methylol-tetrahydrofuran-2-yl]-4-(hydroxyamino)pyrimidin-2-one

>  <PUBCHEM_IUPAC_INCHI>
InChI=1S/C9H13N3O6/c13-3-4-6(14)7(15)8(18-4)12-2-1-5(11-17)10-9(12)16/h1-2,4,6-8,13-15,17H,3H2,(H,10,11,16)/t4-,6-,7-,8-/m1/s1

>  <PUBCHEM_IUPAC_INCHIKEY>
XCUAIINAJCDIPM-XVFCMESISA-N

>  <PUBCHEM_XLOGP3>
-2.2

>  <PUBCHEM_EXACT_MASS>
259.080435

>  <PUBCHEM_MOLECULAR_FORMULA>
C9H13N3O6

>  <PUBCHEM_MOLECULAR_WEIGHT>
259.22

>  <PUBCHEM_OPENEYE_CAN_SMILES>
C1=CN(C(=O)N=C1NO)C2C(C(C(O2)CO)O)O

>  <PUBCHEM_OPENEYE_ISO_SMILES>
C1=CN(C(=O)N=C1NO)[C@H]2[C@@H]([C@@H]([C@H](O2)CO)O)O

>  <PUBCHEM_CACTVS_TPSA>
135

>  <PUBCHEM_MONOISOTOPIC_WEIGHT>
259.080435

>  <PUBCHEM_TOTAL_CHARGE>
0

>  <PUBCHEM_HEAVY_ATOM_COUNT>
18

>  <PUBCHEM_ATOM_DEF_STEREO_COUNT>
4

>  <PUBCHEM_ATOM_UDEF_STEREO_COUNT>
0

>  <PUBCHEM_BOND_DEF_STEREO_COUNT>
0

>  <PUBCHEM_BOND_UDEF_STEREO_COUNT>
0

>  <PUBCHEM_ISOTOPIC_ATOM_COUNT>
0

>  <PUBCHEM_COMPONENT_COUNT>
1

>  <PUBCHEM_CACTVS_TAUTO_COUNT>
-1

>  <PUBCHEM_COORDINATE_TYPE>
1
5
255

>  <PUBCHEM_BONDANNOTATIONS>
13  14  6
15  17  8
17  18  8
10  2  5
11  3  5
12  7  6
7  15  8
7  16  8
8  16  8
8  18  8

>  <LF dG>
-5.723

>  <LF VSscore>
-7.491

>  <LF Rank Score>
-8.591

>  <LF LE>
-0.318

>  <Preferred Pose_cresset>
true

>  <Favorite_cresset>
false

>  <Protein_cresset>
6Y2F_P | 5 A | With water

>  <MW_cresset>
259.2

>  <#Atoms_cresset>
18

>  <SlogP_cresset>
-1.3

>  <TPSA_cresset>
134.8

>  <Flexibility_cresset>
5.7

>  <#RB_cresset>
7

>  <Rof5_cresset>
0

>  <Filename_cresset>
Beta-D-N4-hydroxycytidine-NHC-EIDD-1931.sdf

>  <Confs_cresset>
0

>  <Poses_cresset>
10

>  <_cresset_fieldpoints>
    -5       9.220873       3.306160      15.848674    -21.5861
    -5      10.554405       4.916311      17.055492    -22.4097
    -5      15.637705       3.734088      19.471298    -10.9470
    -6      13.029705       2.690088      22.134296      9.3065
    -6       9.241705      -3.450912      15.249297     11.1620
    -6      12.372705       8.788089      18.829298      4.2895
    -6      13.757706      -0.100912      19.683298     11.3425
    -7      15.719706       2.696088      20.655298     -1.6085
    -7      14.362705       1.636088      21.260298     -1.9250
    -7      12.524706       3.033088      22.680298     -1.7065
    -7      13.852705       7.800088      19.258297     -1.5165
    -7      11.498706       4.889089      16.320297     -2.5005
    -7       9.969706      -3.642912      16.960297     -1.4445
    -7       7.937706      -1.670912      18.919298     -1.4755
    -7       7.261705       0.651088      16.128298     -1.3345
    -7      12.995706       0.721088      16.631298     -2.4855
    -7       8.656706       1.574088      19.931297     -1.9405
    -7      13.802706       6.733088      21.673298     -1.5880
    -7       8.605705       3.822088      18.984297     -2.2600
    -8      12.385706       3.952088      19.210297      4.1535
    -8      12.119705       5.486088      19.811298      4.0070
    -8      11.367705       1.407088      18.853298      2.4015
    -8      10.666705      -0.471912      18.153297      3.8810

$$$$
