Wogonoside.pdb
  RxDock  02242112193D
librxdock.so/0.1.0
 38 41  0  0  0  0  0  0  0  0999 V2000
  -50.0093   -3.2695   17.4275 O   0  0  0  0  0  0
  -49.9161   -1.3129   16.1606 O   0  0  0  0  0  0
  -51.0122   -5.5126   14.1357 O   0  0  0  0  0  0
  -51.3811   -2.5913   14.1111 O   0  0  0  0  0  0
  -51.5093   -6.5469   16.8072 O   0  0  0  0  0  0
  -50.7222   -5.6525   19.7471 O   0  0  0  0  0  0
  -48.6863   -5.0341   18.9303 O   0  0  0  0  0  0
  -45.5635   -0.1881   17.7172 O   0  0  0  0  0  0
  -48.2572    0.0205   17.9310 O   0  0  0  0  0  0
  -46.1542   -3.1134   13.8980 O   0  0  0  0  0  0
  -43.7922   -2.4403   14.8210 O   0  0  0  0  0  0
  -51.2746   -4.6991   15.2803 C   0  0  0  0  0  0
  -50.6376   -3.3231   15.0842 C   0  0  0  0  0  0
  -50.7020   -5.4095   16.5071 C   0  0  0  0  0  0
  -50.6367   -2.5227   16.3874 C   0  0  0  0  0  0
  -50.6969   -4.4812   17.7151 C   0  0  0  0  0  0
  -49.9052   -5.0682   18.8383 C   0  0  0  0  0  0
  -48.5604   -1.4202   16.0497 C   0  0  0  0  0  0
  -47.7214   -0.7495   16.9403 C   0  0  0  0  0  0
  -48.0171   -2.2091   15.0348 C   0  0  0  0  0  0
  -46.3364   -0.8704   16.8133 C   0  0  0  0  0  0
  -45.7968   -1.6591   15.7991 C   0  0  0  0  0  0
  -46.6335   -2.3317   14.9061 C   0  0  0  0  0  0
  -44.3339   -1.7674   15.6874 C   0  0  0  0  0  0
  -44.1847   -0.2947   17.6202 C   0  0  0  0  0  0
  -43.5456   -1.0157   16.6848 C   0  0  0  0  0  0
  -43.4493    0.4843   18.6365 C   0  0  0  0  0  0
  -48.3633   -0.5707   19.2239 C   0  0  0  0  0  0
  -43.3074    1.8675   18.4944 C   0  0  0  0  0  0
  -42.8922   -0.1574   19.7456 C   0  0  0  0  0  0
  -42.6139    2.6033   19.4550 C   0  0  0  0  0  0
  -42.1979    0.5790   20.7063 C   0  0  0  0  0  0
  -42.0591    1.9597   20.5608 C   0  0  0  0  0  0
  -50.0502   -5.5285   13.9987 H   0  0  0  0  0  0
  -52.2927   -2.5066   14.4385 H   0  0  0  0  0  0
  -51.4801   -7.1474   16.0432 H   0  0  0  0  0  0
  -50.2189   -6.0757   20.4752 H   0  0  0  0  0  0
  -46.7646   -3.8427   13.7141 H   0  0  0  0  0  0
  1 15  1  0  0  0
  1 16  1  0  0  0
  2 15  1  0  0  0
  2 18  1  0  0  0
  3 12  1  0  0  0
  3 34  1  0  0  0
  4 13  1  0  0  0
  4 35  1  0  0  0
  5 14  1  0  0  0
  5 36  1  0  0  0
  6 17  1  0  0  0
  6 37  1  0  0  0
  7 17  2  0  0  0
  8 21  1  0  0  0
  8 25  1  0  0  0
  9 19  1  0  0  0
  9 28  1  0  0  0
 10 23  1  0  0  0
 10 38  1  0  0  0
 11 24  2  0  0  0
 12 13  1  0  0  0
 13 15  1  0  0  0
 14 12  1  0  0  0
 16 14  1  0  0  0
 16 17  1  0  0  0
 18 19  2  0  0  0
 18 20  1  0  0  0
 19 21  1  0  0  0
 20 23  2  0  0  0
 21 22  2  0  0  0
 22 23  1  0  0  0
 22 24  1  0  0  0
 24 26  1  0  0  0
 25 26  2  0  0  0
 25 27  1  0  0  0
 27 29  2  0  0  0
 27 30  1  0  0  0
 29 31  1  0  0  0
 30 32  2  0  0  0
 31 33  2  0  0  0
 32 33  1  0  0  0
M  END
>  <CHROM.0>
-178.41685378,179.92034567,65.89158329

>  <CHROM.1>
47.30815341,-119.78035578,54.84872925,59.49188452,61.12416391,-2.07059905
98.08181908,-31.56856213,141.57791597,-77.39349686,-47.46248919,-2.14430184
17.04602026,2.83878361,-0.59206105,-1.65884813

>  <Name>
Wogonoside.pdb

>  <RI>
-2.5735e+08

>  <Rbt.Current_Directory>
/root/miniconda3/envs/rdock/share/rxdock-2013.1.1_148c5bd1-0/data/ligands/prepped_ligands/Wogonoside

>  <Rbt.Executable>
rbdock/0.1.0

>  <Rbt.Library>
librxdock.so/0.1.0

>  <Rbt.Parameter_File>
/root/miniconda3/envs/rdock/share/rxdock-2013.1.1_148c5bd1-0/data/scripts/dock.prm

>  <Rbt.Receptor>
def.prm

>  <SCORE>
-11.4294

>  <SCORE.INTER>
-13.1878

>  <SCORE.INTER.CONST>
1

>  <SCORE.INTER.POLAR>
-1.94491

>  <SCORE.INTER.REPUL>
0.00819539

>  <SCORE.INTER.ROT>
5

>  <SCORE.INTER.VDW>
-17.0161

>  <SCORE.INTER.norm>
-0.399632

>  <SCORE.INTRA>
2.75027

>  <SCORE.INTRA.DIHEDRAL>
6.54256

>  <SCORE.INTRA.DIHEDRAL.0>
10.6366

>  <SCORE.INTRA.POLAR>
0

>  <SCORE.INTRA.POLAR.0>
0

>  <SCORE.INTRA.REPUL>
0

>  <SCORE.INTRA.REPUL.0>
0

>  <SCORE.INTRA.VDW>
-0.521012

>  <SCORE.INTRA.VDW.0>
-0.944467

>  <SCORE.INTRA.norm>
0.0833415

>  <SCORE.RESTR>
0

>  <SCORE.RESTR.CAVITY>
0

>  <SCORE.RESTR.norm>
0

>  <SCORE.SYSTEM>
-0.991802

>  <SCORE.SYSTEM.CONST>
0

>  <SCORE.SYSTEM.DIHEDRAL>
0.0854776

>  <SCORE.SYSTEM.POLAR>
-0.0123065

>  <SCORE.SYSTEM.VDW>
-0.992699

>  <SCORE.SYSTEM.norm>
-0.0300546

>  <SCORE.heavy>
33

>  <SCORE.norm>
-0.346345

$$$$
Wogonoside.pdb
  RxDock  02242112193D
librxdock.so/0.1.0
 38 41  0  0  0  0  0  0  0  0999 V2000
  -51.1985   -4.5682   16.7312 O   0  0  0  0  0  0
  -52.5681   -2.7899   16.0957 O   0  0  0  0  0  0
  -54.2555   -7.2697   16.2518 O   0  0  0  0  0  0
  -54.8429   -4.4004   16.5572 O   0  0  0  0  0  0
  -51.9277   -7.9747   17.8447 O   0  0  0  0  0  0
  -49.1983   -5.6807   16.0608 O   0  0  0  0  0  0
  -48.9569   -6.8213   18.0192 O   0  0  0  0  0  0
  -48.1861   -1.4355   17.3591 O   0  0  0  0  0  0
  -50.5489   -2.6085   17.9808 O   0  0  0  0  0  0
  -49.8510   -0.5930   12.8858 O   0  0  0  0  0  0
  -47.4501    0.1212   13.6668 O   0  0  0  0  0  0
  -53.4552   -6.3302   16.9713 C   0  0  0  0  0  0
  -53.5550   -4.9587   16.3030 C   0  0  0  0  0  0
  -52.0152   -6.8437   16.9795 C   0  0  0  0  0  0
  -52.4996   -3.9974   16.8517 C   0  0  0  0  0  0
  -51.0612   -5.7679   17.4832 C   0  0  0  0  0  0
  -49.6387   -6.1608   17.2483 C   0  0  0  0  0  0
  -51.3801   -2.1985   15.7790 C   0  0  0  0  0  0
  -50.3601   -2.1054   16.7267 C   0  0  0  0  0  0
  -51.1917   -1.6855   14.4950 C   0  0  0  0  0  0
  -49.1503   -1.4978   16.3863 C   0  0  0  0  0  0
  -48.9650   -0.9866   15.1031 C   0  0  0  0  0  0
  -49.9836   -1.0781   14.1523 C   0  0  0  0  0  0
  -47.6809   -0.3500   14.7721 C   0  0  0  0  0  0
  -46.9715   -0.8439   17.0480 C   0  0  0  0  0  0
  -46.6746   -0.3093   15.8525 C   0  0  0  0  0  0
  -46.0092   -0.8238   18.1679 C   0  0  0  0  0  0
  -50.9146   -1.6823   19.0009 C   0  0  0  0  0  0
  -46.4585   -0.6288   19.4769 C   0  0  0  0  0  0
  -44.6447   -1.0002   17.9244 C   0  0  0  0  0  0
  -45.5497   -0.6111   20.5346 C   0  0  0  0  0  0
  -43.7356   -0.9819   18.9829 C   0  0  0  0  0  0
  -44.1885   -0.7875   20.2882 C   0  0  0  0  0  0
  -54.2263   -8.1132   16.7337 H   0  0  0  0  0  0
  -54.8105   -3.9674   17.4271 H   0  0  0  0  0  0
  -52.4783   -8.6835   17.4711 H   0  0  0  0  0  0
  -48.2576   -5.9075   15.8989 H   0  0  0  0  0  0
  -49.2928   -1.1795   12.3541 H   0  0  0  0  0  0
  1 15  1  0  0  0
  1 16  1  0  0  0
  2 15  1  0  0  0
  2 18  1  0  0  0
  3 12  1  0  0  0
  3 34  1  0  0  0
  4 13  1  0  0  0
  4 35  1  0  0  0
  5 14  1  0  0  0
  5 36  1  0  0  0
  6 17  1  0  0  0
  6 37  1  0  0  0
  7 17  2  0  0  0
  8 21  1  0  0  0
  8 25  1  0  0  0
  9 19  1  0  0  0
  9 28  1  0  0  0
 10 23  1  0  0  0
 10 38  1  0  0  0
 11 24  2  0  0  0
 12 13  1  0  0  0
 13 15  1  0  0  0
 14 12  1  0  0  0
 16 14  1  0  0  0
 16 17  1  0  0  0
 18 19  2  0  0  0
 18 20  1  0  0  0
 19 21  1  0  0  0
 20 23  2  0  0  0
 21 22  2  0  0  0
 22 23  1  0  0  0
 22 24  1  0  0  0
 24 26  1  0  0  0
 25 26  2  0  0  0
 25 27  1  0  0  0
 27 29  2  0  0  0
 27 30  1  0  0  0
 29 31  1  0  0  0
 30 32  2  0  0  0
 31 33  2  0  0  0
 32 33  1  0  0  0
M  END
>  <CHROM.0>
-59.11681548,-58.10825081,46.03116887

>  <CHROM.1>
-19.69707786,-42.68291834,-175.90153747,83.96254202,64.11638451,-1.33444366
-98.61219267,-104.43669872,-26.74949724,-36.28647446,-49.68137232,-3.02298784
16.82344911,-2.74123273,-0.54969415,-0.71149615

>  <Name>
Wogonoside.pdb

>  <RI>
-2.5735e+08

>  <Rbt.Current_Directory>
/root/miniconda3/envs/rdock/share/rxdock-2013.1.1_148c5bd1-0/data/ligands/prepped_ligands/Wogonoside

>  <Rbt.Executable>
rbdock/0.1.0

>  <Rbt.Library>
librxdock.so/0.1.0

>  <Rbt.Parameter_File>
/root/miniconda3/envs/rdock/share/rxdock-2013.1.1_148c5bd1-0/data/scripts/dock.prm

>  <Rbt.Receptor>
def.prm

>  <SCORE>
-8.60836

>  <SCORE.INTER>
-16.7779

>  <SCORE.INTER.CONST>
1

>  <SCORE.INTER.POLAR>
-1.9

>  <SCORE.INTER.REPUL>
0.00105706

>  <SCORE.INTER.ROT>
5

>  <SCORE.INTER.VDW>
-20.7232

>  <SCORE.INTER.norm>
-0.508421

>  <SCORE.INTRA>
8.9502

>  <SCORE.INTRA.DIHEDRAL>
12.3222

>  <SCORE.INTRA.DIHEDRAL.0>
10.6366

>  <SCORE.INTRA.POLAR>
0

>  <SCORE.INTRA.POLAR.0>
0

>  <SCORE.INTRA.REPUL>
0

>  <SCORE.INTRA.REPUL.0>
0

>  <SCORE.INTRA.VDW>
2.78908

>  <SCORE.INTRA.VDW.0>
-0.944467

>  <SCORE.INTRA.norm>
0.271218

>  <SCORE.RESTR>
0

>  <SCORE.RESTR.CAVITY>
0

>  <SCORE.RESTR.norm>
0

>  <SCORE.SYSTEM>
-0.780673

>  <SCORE.SYSTEM.CONST>
0

>  <SCORE.SYSTEM.DIHEDRAL>
0.489869

>  <SCORE.SYSTEM.VDW>
-1.02561

>  <SCORE.SYSTEM.norm>
-0.0236568

>  <SCORE.heavy>
33

>  <SCORE.norm>
-0.260859

$$$$
Wogonoside.pdb
  RxDock  02242112193D
librxdock.so/0.1.0
 38 41  0  0  0  0  0  0  0  0999 V2000
  -50.8346   -4.4901   18.5843 O   0  0  0  0  0  0
  -51.6273   -2.8225   17.1586 O   0  0  0  0  0  0
  -53.3883   -7.2725   16.9687 O   0  0  0  0  0  0
  -53.9102   -4.3959   16.6165 O   0  0  0  0  0  0
  -52.1809   -7.7443   19.5711 O   0  0  0  0  0  0
  -48.9847   -4.9140   20.0620 O   0  0  0  0  0  0
  -49.4985   -7.1201   20.3136 O   0  0  0  0  0  0
  -46.9609   -2.1681   17.8136 O   0  0  0  0  0  0
  -49.4898   -2.1601   18.7883 O   0  0  0  0  0  0
  -48.6947   -3.5226   13.4949 O   0  0  0  0  0  0
  -46.1383   -3.1376   13.9431 O   0  0  0  0  0  0
  -53.0004   -6.2408   17.8775 C   0  0  0  0  0  0
  -52.6923   -4.9631   17.0963 C   0  0  0  0  0  0
  -51.7770   -6.7292   18.6536 C   0  0  0  0  0  0
  -51.9976   -3.9272   17.9813 C   0  0  0  0  0  0
  -51.1429   -5.5866   19.4366 C   0  0  0  0  0  0
  -49.8095   -5.9853   19.9808 C   0  0  0  0  0  0
  -50.3556   -2.8275   16.6642 C   0  0  0  0  0  0
  -49.2759   -2.4942   17.4829 C   0  0  0  0  0  0
  -50.1419   -3.1700   15.3284 C   0  0  0  0  0  0
  -47.9809   -2.5047   16.9616 C   0  0  0  0  0  0
  -47.7706   -2.8475   15.6273 C   0  0  0  0  0  0
  -48.8488   -3.1816   14.8053 C   0  0  0  0  0  0
  -46.3959   -2.8488   15.1038 C   0  0  0  0  0  0
  -45.6632   -2.1766   17.3259 C   0  0  0  0  0  0
  -45.3325   -2.4811   16.0606 C   0  0  0  0  0  0
  -44.6443   -1.7924   18.3235 C   0  0  0  0  0  0
  -50.0364   -0.8685   19.0441 C   0  0  0  0  0  0
  -45.0338   -1.2735   19.5614 C   0  0  0  0  0  0
  -43.2859   -1.9465   18.0349 C   0  0  0  0  0  0
  -44.0715   -0.9119   20.5039 C   0  0  0  0  0  0
  -42.3234   -1.5841   18.9779 C   0  0  0  0  0  0
  -42.7165   -1.0670   20.2128 C   0  0  0  0  0  0
  -52.6405   -7.4352   16.3696 H   0  0  0  0  0  0
  -54.3571   -3.9752   17.3706 H   0  0  0  0  0  0
  -52.7906   -7.3443   20.2141 H   0  0  0  0  0  0
  -49.4048   -4.0994   19.7117 H   0  0  0  0  0  0
  -47.7701   -3.4219   13.2242 H   0  0  0  0  0  0
  1 15  1  0  0  0
  1 16  1  0  0  0
  2 15  1  0  0  0
  2 18  1  0  0  0
  3 12  1  0  0  0
  3 34  1  0  0  0
  4 13  1  0  0  0
  4 35  1  0  0  0
  5 14  1  0  0  0
  5 36  1  0  0  0
  6 17  1  0  0  0
  6 37  1  0  0  0
  7 17  2  0  0  0
  8 21  1  0  0  0
  8 25  1  0  0  0
  9 19  1  0  0  0
  9 28  1  0  0  0
 10 23  1  0  0  0
 10 38  1  0  0  0
 11 24  2  0  0  0
 12 13  1  0  0  0
 13 15  1  0  0  0
 14 12  1  0  0  0
 16 14  1  0  0  0
 16 17  1  0  0  0
 18 19  2  0  0  0
 18 20  1  0  0  0
 19 21  1  0  0  0
 20 23  2  0  0  0
 21 22  2  0  0  0
 22 23  1  0  0  0
 22 24  1  0  0  0
 24 26  1  0  0  0
 25 26  2  0  0  0
 25 27  1  0  0  0
 27 29  2  0  0  0
 27 30  1  0  0  0
 29 31  1  0  0  0
 30 32  2  0  0  0
 31 33  2  0  0  0
 32 33  1  0  0  0
M  END
>  <CHROM.0>
65.50375264,-174.41572521,-59.19340480

>  <CHROM.1>
25.42192310,-76.48318456,61.29896808,75.29933736,-63.62616937,177.56100124
-74.90722111,175.09309321,30.10629168,-9.46269576,-48.82455694,-3.63794875
17.71609310,-3.01514813,-0.46021987,-1.26142217

>  <Name>
Wogonoside.pdb

>  <RI>
-2.5735e+08

>  <Rbt.Current_Directory>
/root/miniconda3/envs/rdock/share/rxdock-2013.1.1_148c5bd1-0/data/ligands/prepped_ligands/Wogonoside

>  <Rbt.Executable>
rbdock/0.1.0

>  <Rbt.Library>
librxdock.so/0.1.0

>  <Rbt.Parameter_File>
/root/miniconda3/envs/rdock/share/rxdock-2013.1.1_148c5bd1-0/data/scripts/dock.prm

>  <Rbt.Receptor>
def.prm

>  <SCORE>
-14.2925

>  <SCORE.INTER>
-14.0556

>  <SCORE.INTER.CONST>
1

>  <SCORE.INTER.POLAR>
-1.99871

>  <SCORE.INTER.REPUL>
0.0268635

>  <SCORE.INTER.ROT>
5

>  <SCORE.INTER.VDW>
-17.7943

>  <SCORE.INTER.norm>
-0.425926

>  <SCORE.INTRA>
0.721392

>  <SCORE.INTRA.DIHEDRAL>
5.88724

>  <SCORE.INTRA.DIHEDRAL.0>
10.6366

>  <SCORE.INTRA.POLAR>
-1.23523

>  <SCORE.INTRA.POLAR.0>
0

>  <SCORE.INTRA.REPUL>
0

>  <SCORE.INTRA.REPUL.0>
0

>  <SCORE.INTRA.VDW>
1.97756

>  <SCORE.INTRA.VDW.0>
-0.944467

>  <SCORE.INTRA.norm>
0.0218604

>  <SCORE.RESTR>
0

>  <SCORE.RESTR.CAVITY>
0

>  <SCORE.RESTR.norm>
0

>  <SCORE.SYSTEM>
-0.958357

>  <SCORE.SYSTEM.CONST>
0

>  <SCORE.SYSTEM.DIHEDRAL>
0.224152

>  <SCORE.SYSTEM.POLAR>
-0.00281793

>  <SCORE.SYSTEM.VDW>
-1.06085

>  <SCORE.SYSTEM.norm>
-0.0290411

>  <SCORE.heavy>
33

>  <SCORE.norm>
-0.433107

$$$$
Wogonoside.pdb
  RxDock  02242112193D
librxdock.so/0.1.0
 38 41  0  0  0  0  0  0  0  0999 V2000
  -50.3811   -4.4283   17.3493 O   0  0  0  0  0  0
  -51.8263   -2.6058   17.1712 O   0  0  0  0  0  0
  -53.3897   -7.0740   16.4428 O   0  0  0  0  0  0
  -54.0327   -4.3578   17.3806 O   0  0  0  0  0  0
  -50.9653   -8.0173   17.7412 O   0  0  0  0  0  0
  -47.9264   -5.8029   18.4870 O   0  0  0  0  0  0
  -48.3884   -6.4316   16.3456 O   0  0  0  0  0  0
  -47.2363   -1.3573   17.2507 O   0  0  0  0  0  0
  -49.3964   -2.4313   18.4861 O   0  0  0  0  0  0
  -49.9453   -0.6030   13.3029 O   0  0  0  0  0  0
  -47.4089    0.0560   13.4336 O   0  0  0  0  0  0
  -52.5771   -6.2807   17.3095 C   0  0  0  0  0  0
  -52.7460   -4.8031   16.9548 C   0  0  0  0  0  0
  -51.1261   -6.7324   17.1425 C   0  0  0  0  0  0
  -51.6882   -3.9430   17.6478 C   0  0  0  0  0  0
  -50.1748   -5.7546   17.8206 C   0  0  0  0  0  0
  -48.7569   -6.0376   17.4430 C   0  0  0  0  0  0
  -50.7412   -2.0643   16.5460 C   0  0  0  0  0  0
  -49.5149   -1.9749   17.2058 C   0  0  0  0  0  0
  -50.8673   -1.5989   15.2364 C   0  0  0  0  0  0
  -48.4142   -1.4186   16.5516 C   0  0  0  0  0  0
  -48.5432   -0.9550   15.2438 C   0  0  0  0  0  0
  -49.7689   -1.0430   14.5806 C   0  0  0  0  0  0
  -47.3675   -0.3719   14.5791 C   0  0  0  0  0  0
  -46.1241   -0.8163   16.6244 C   0  0  0  0  0  0
  -46.1226   -0.3301   15.3727 C   0  0  0  0  0  0
  -44.9123   -0.7924   17.4680 C   0  0  0  0  0  0
  -49.2528   -1.4513   19.5114 C   0  0  0  0  0  0
  -44.3995    0.4242   17.9265 C   0  0  0  0  0  0
  -44.2728   -1.9860   17.8124 C   0  0  0  0  0  0
  -43.2558    0.4466   18.7243 C   0  0  0  0  0  0
  -43.1282   -1.9632   18.6102 C   0  0  0  0  0  0
  -42.6199   -0.7464   19.0663 C   0  0  0  0  0  0
  -52.9891   -7.0498   15.5577 H   0  0  0  0  0  0
  -54.6980   -4.8233   16.8459 H   0  0  0  0  0  0
  -50.0466   -8.3027   17.6006 H   0  0  0  0  0  0
  -46.9973   -6.0386   18.2777 H   0  0  0  0  0  0
  -49.1653   -0.1143   13.0012 H   0  0  0  0  0  0
  1 15  1  0  0  0
  1 16  1  0  0  0
  2 15  1  0  0  0
  2 18  1  0  0  0
  3 12  1  0  0  0
  3 34  1  0  0  0
  4 13  1  0  0  0
  4 35  1  0  0  0
  5 14  1  0  0  0
  5 36  1  0  0  0
  6 17  1  0  0  0
  6 37  1  0  0  0
  7 17  2  0  0  0
  8 21  1  0  0  0
  8 25  1  0  0  0
  9 19  1  0  0  0
  9 28  1  0  0  0
 10 23  1  0  0  0
 10 38  1  0  0  0
 11 24  2  0  0  0
 12 13  1  0  0  0
 13 15  1  0  0  0
 14 12  1  0  0  0
 16 14  1  0  0  0
 16 17  1  0  0  0
 18 19  2  0  0  0
 18 20  1  0  0  0
 19 21  1  0  0  0
 20 23  2  0  0  0
 21 22  2  0  0  0
 22 23  1  0  0  0
 22 24  1  0  0  0
 24 26  1  0  0  0
 25 26  2  0  0  0
 25 27  1  0  0  0
 27 29  2  0  0  0
 27 30  1  0  0  0
 29 31  1  0  0  0
 30 32  2  0  0  0
 31 33  2  0  0  0
 32 33  1  0  0  0
M  END
>  <CHROM.0>
-61.17780173,-169.54723311,-59.78987630

>  <CHROM.1>
0.16978665,-57.78736995,71.08305848,-66.35986939,178.13918937,-3.50513267
-108.61134522,171.01482513,96.37915122,-110.88028021,-48.83751889,-2.94564266
16.93118438,-2.61942199,-0.38290878,-0.55726680

>  <Name>
Wogonoside.pdb

>  <RI>
-2.5735e+08

>  <Rbt.Current_Directory>
/root/miniconda3/envs/rdock/share/rxdock-2013.1.1_148c5bd1-0/data/ligands/prepped_ligands/Wogonoside

>  <Rbt.Executable>
rbdock/0.1.0

>  <Rbt.Library>
librxdock.so/0.1.0

>  <Rbt.Parameter_File>
/root/miniconda3/envs/rdock/share/rxdock-2013.1.1_148c5bd1-0/data/scripts/dock.prm

>  <Rbt.Receptor>
def.prm

>  <SCORE>
-8.04337

>  <SCORE.INTER>
-13.4867

>  <SCORE.INTER.CONST>
1

>  <SCORE.INTER.POLAR>
-0.839804

>  <SCORE.INTER.REPUL>
0.15124

>  <SCORE.INTER.ROT>
5

>  <SCORE.INTER.VDW>
-21.7876

>  <SCORE.INTER.norm>
-0.408688

>  <SCORE.INTRA>
6.28527

>  <SCORE.INTRA.DIHEDRAL>
11.3438

>  <SCORE.INTRA.DIHEDRAL.0>
10.6366

>  <SCORE.INTRA.POLAR>
0

>  <SCORE.INTRA.POLAR.0>
0

>  <SCORE.INTRA.REPUL>
0

>  <SCORE.INTRA.REPUL.0>
0

>  <SCORE.INTRA.VDW>
0.613389

>  <SCORE.INTRA.VDW.0>
-0.944467

>  <SCORE.INTRA.norm>
0.190463

>  <SCORE.RESTR>
0

>  <SCORE.RESTR.CAVITY>
0

>  <SCORE.RESTR.norm>
0

>  <SCORE.SYSTEM>
-0.841917

>  <SCORE.SYSTEM.CONST>
0

>  <SCORE.SYSTEM.DIHEDRAL>
0.530283

>  <SCORE.SYSTEM.POLAR>
-0.00131409

>  <SCORE.SYSTEM.VDW>
-1.10259

>  <SCORE.SYSTEM.norm>
-0.0255126

>  <SCORE.heavy>
33

>  <SCORE.norm>
-0.243738

$$$$
Wogonoside.pdb
  RxDock  02242112193D
librxdock.so/0.1.0
 38 41  0  0  0  0  0  0  0  0999 V2000
  -49.8851   -3.6742   17.6299 O   0  0  0  0  0  0
  -50.0040   -1.6454   16.4846 O   0  0  0  0  0  0
  -50.9643   -5.7851   14.2754 O   0  0  0  0  0  0
  -51.5204   -2.8992   14.4573 O   0  0  0  0  0  0
  -51.2108   -7.0044   16.9034 O   0  0  0  0  0  0
  -50.2332   -6.4558   19.6624 O   0  0  0  0  0  0
  -48.3919   -5.2510   19.0689 O   0  0  0  0  0  0
  -45.7550   -0.2703   18.1240 O   0  0  0  0  0  0
  -48.4575   -0.2775   18.3287 O   0  0  0  0  0  0
  -46.1083   -3.0430   14.1643 O   0  0  0  0  0  0
  -43.8075   -2.2381   15.1352 O   0  0  0  0  0  0
  -51.1997   -5.0593   15.4832 C   0  0  0  0  0  0
  -50.6670   -3.6341   15.3330 C   0  0  0  0  0  0
  -50.5004   -5.7992   16.6238 C   0  0  0  0  0  0
  -50.6285   -2.9126   16.6810 C   0  0  0  0  0  0
  -50.4724   -4.9446   17.8847 C   0  0  0  0  0  0
  -49.5700   -5.5407   18.9159 C   0  0  0  0  0  0
  -48.6438   -1.6440   16.3781 C   0  0  0  0  0  0
  -47.8612   -0.9556   17.3059 C   0  0  0  0  0  0
  -48.0385   -2.3390   15.3302 C   0  0  0  0  0  0
  -46.4707   -0.9646   17.1830 C   0  0  0  0  0  0
  -45.8691   -1.6599   16.1357 C   0  0  0  0  0  0
  -46.6492   -2.3498   15.2055 C   0  0  0  0  0  0
  -44.4019   -1.6511   16.0292 C   0  0  0  0  0  0
  -44.3717   -0.2670   18.0317 C   0  0  0  0  0  0
  -43.6765   -0.8912   17.0672 C   0  0  0  0  0  0
  -43.7012    0.5153   19.0896 C   0  0  0  0  0  0
  -49.2091    0.8836   17.9835 C   0  0  0  0  0  0
  -42.3063    0.5938   19.1279 C   0  0  0  0  0  0
  -44.4580    1.1813   20.0570 C   0  0  0  0  0  0
  -41.6732    1.3337   20.1263 C   0  0  0  0  0  0
  -43.8242    1.9211   21.0561 C   0  0  0  0  0  0
  -42.4314    1.9973   21.0904 C   0  0  0  0  0  0
  -50.0283   -5.6713   14.0398 H   0  0  0  0  0  0
  -52.3988   -2.8527   14.8715 H   0  0  0  0  0  0
  -52.1417   -6.7752   17.0648 H   0  0  0  0  0  0
  -49.6491   -6.8820   20.3256 H   0  0  0  0  0  0
  -46.3846   -2.6576   13.3197 H   0  0  0  0  0  0
  1 15  1  0  0  0
  1 16  1  0  0  0
  2 15  1  0  0  0
  2 18  1  0  0  0
  3 12  1  0  0  0
  3 34  1  0  0  0
  4 13  1  0  0  0
  4 35  1  0  0  0
  5 14  1  0  0  0
  5 36  1  0  0  0
  6 17  1  0  0  0
  6 37  1  0  0  0
  7 17  2  0  0  0
  8 21  1  0  0  0
  8 25  1  0  0  0
  9 19  1  0  0  0
  9 28  1  0  0  0
 10 23  1  0  0  0
 10 38  1  0  0  0
 11 24  2  0  0  0
 12 13  1  0  0  0
 13 15  1  0  0  0
 14 12  1  0  0  0
 16 14  1  0  0  0
 16 17  1  0  0  0
 18 19  2  0  0  0
 18 20  1  0  0  0
 19 21  1  0  0  0
 20 23  2  0  0  0
 21 22  2  0  0  0
 22 23  1  0  0  0
 22 24  1  0  0  0
 24 26  1  0  0  0
 25 26  2  0  0  0
 25 27  1  0  0  0
 27 29  2  0  0  0
 27 30  1  0  0  0
 29 31  1  0  0  0
 30 32  2  0  0  0
 31 33  2  0  0  0
 32 33  1  0  0  0
M  END
>  <CHROM.0>
175.79333224,-178.03832817,-171.24677028

>  <CHROM.1>
42.66296439,-118.27087186,50.62020610,62.65638911,-53.87225819,-1.78123371
-68.66773980,63.21097206,154.67864644,179.30947565,-47.51924969,-2.26837363
17.29286132,2.80047477,-0.64980593,-1.66677975

>  <Name>
Wogonoside.pdb

>  <RI>
-2.5735e+08

>  <Rbt.Current_Directory>
/root/miniconda3/envs/rdock/share/rxdock-2013.1.1_148c5bd1-0/data/ligands/prepped_ligands/Wogonoside

>  <Rbt.Executable>
rbdock/0.1.0

>  <Rbt.Library>
librxdock.so/0.1.0

>  <Rbt.Parameter_File>
/root/miniconda3/envs/rdock/share/rxdock-2013.1.1_148c5bd1-0/data/scripts/dock.prm

>  <Rbt.Receptor>
def.prm

>  <SCORE>
-6.6429

>  <SCORE.INTER>
-9.01417

>  <SCORE.INTER.CONST>
1

>  <SCORE.INTER.POLAR>
-1.18881

>  <SCORE.INTER.REPUL>
0.00286366

>  <SCORE.INTER.ROT>
5

>  <SCORE.INTER.VDW>
-15.3865

>  <SCORE.INTER.norm>
-0.273157

>  <SCORE.INTRA>
3.31708

>  <SCORE.INTRA.DIHEDRAL>
4.60299

>  <SCORE.INTRA.DIHEDRAL.0>
10.6366

>  <SCORE.INTRA.POLAR>
0

>  <SCORE.INTRA.POLAR.0>
0

>  <SCORE.INTRA.REPUL>
0

>  <SCORE.INTRA.REPUL.0>
0

>  <SCORE.INTRA.VDW>
1.01558

>  <SCORE.INTRA.VDW.0>
-0.944467

>  <SCORE.INTRA.norm>
0.100517

>  <SCORE.RESTR>
0

>  <SCORE.RESTR.CAVITY>
0

>  <SCORE.RESTR.norm>
0

>  <SCORE.SYSTEM>
-0.94581

>  <SCORE.SYSTEM.CONST>
0

>  <SCORE.SYSTEM.DIHEDRAL>
0.244604

>  <SCORE.SYSTEM.POLAR>
-0.0169354

>  <SCORE.SYSTEM.VDW>
-1.01053

>  <SCORE.SYSTEM.norm>
-0.0286609

>  <SCORE.heavy>
33

>  <SCORE.norm>
-0.2013

$$$$
Wogonoside.pdb
  RxDock  02242112193D
librxdock.so/0.1.0
 38 41  0  0  0  0  0  0  0  0999 V2000
  -51.8050   -4.7507   19.0079 O   0  0  0  0  0  0
  -52.7959   -3.8959   17.0768 O   0  0  0  0  0  0
  -51.6261   -8.5287   17.4054 O   0  0  0  0  0  0
  -53.4630   -6.5224   16.2779 O   0  0  0  0  0  0
  -51.4027   -8.1559   20.2802 O   0  0  0  0  0  0
  -49.6794   -6.1924   20.9963 O   0  0  0  0  0  0
  -50.8021   -4.3021   21.5971 O   0  0  0  0  0  0
  -48.8049   -1.3075   17.1428 O   0  0  0  0  0  0
  -51.1687   -2.0020   18.2721 O   0  0  0  0  0  0
  -49.6720   -4.4399   13.5471 O   0  0  0  0  0  0
  -47.4999   -2.9725   13.6610 O   0  0  0  0  0  0
  -52.2269   -7.4535   18.1290 C   0  0  0  0  0  0
  -52.4083   -6.2528   17.1999 C   0  0  0  0  0  0
  -51.3187   -7.1126   19.3108 C   0  0  0  0  0  0
  -52.7712   -4.9931   17.9877 C   0  0  0  0  0  0
  -51.7486   -5.8042   19.9622 C   0  0  0  0  0  0
  -50.7220   -5.3296   20.9389 C   0  0  0  0  0  0
  -51.6067   -3.5488   16.5051 C   0  0  0  0  0  0
  -50.7840   -2.5946   17.1049 C   0  0  0  0  0  0
  -51.2175   -4.1577   15.3113 C   0  0  0  0  0  0
  -49.5701   -2.2511   16.5073 C   0  0  0  0  0  0
  -49.1840   -2.8612   15.3153 C   0  0  0  0  0  0
  -50.0049   -3.8165   14.7124 C   0  0  0  0  0  0
  -47.9005   -2.4791   14.7066 C   0  0  0  0  0  0
  -47.5907   -0.9513   16.5764 C   0  0  0  0  0  0
  -47.1124   -1.4606   15.4297 C   0  0  0  0  0  0
  -46.8517    0.0762   17.3372 C   0  0  0  0  0  0
  -50.3282   -2.2012   19.4062 C   0  0  0  0  0  0
  -45.4540    0.0771   17.3420 C   0  0  0  0  0  0
  -47.5461    1.0529   18.0556 C   0  0  0  0  0  0
  -44.7562    1.0483   18.0595 C   0  0  0  0  0  0
  -46.8476    2.0242   18.7739 C   0  0  0  0  0  0
  -45.4522    2.0218   18.7755 C   0  0  0  0  0  0
  -52.2217   -8.7618   16.6736 H   0  0  0  0  0  0
  -53.5139   -5.7732   15.6604 H   0  0  0  0  0  0
  -50.7966   -7.9398   21.0090 H   0  0  0  0  0  0
  -48.9900   -5.8941   21.6274 H   0  0  0  0  0  0
  -50.1870   -5.2529   13.4378 H   0  0  0  0  0  0
  1 15  1  0  0  0
  1 16  1  0  0  0
  2 15  1  0  0  0
  2 18  1  0  0  0
  3 12  1  0  0  0
  3 34  1  0  0  0
  4 13  1  0  0  0
  4 35  1  0  0  0
  5 14  1  0  0  0
  5 36  1  0  0  0
  6 17  1  0  0  0
  6 37  1  0  0  0
  7 17  2  0  0  0
  8 21  1  0  0  0
  8 25  1  0  0  0
  9 19  1  0  0  0
  9 28  1  0  0  0
 10 23  1  0  0  0
 10 38  1  0  0  0
 11 24  2  0  0  0
 12 13  1  0  0  0
 13 15  1  0  0  0
 14 12  1  0  0  0
 16 14  1  0  0  0
 16 17  1  0  0  0
 18 19  2  0  0  0
 18 20  1  0  0  0
 19 21  1  0  0  0
 20 23  2  0  0  0
 21 22  2  0  0  0
 22 23  1  0  0  0
 22 24  1  0  0  0
 24 26  1  0  0  0
 25 26  2  0  0  0
 25 27  1  0  0  0
 27 29  2  0  0  0
 27 30  1  0  0  0
 29 31  1  0  0  0
 30 32  2  0  0  0
 31 33  2  0  0  0
 32 33  1  0  0  0
M  END
>  <CHROM.0>
56.41081607,-61.21361037,-179.77933822

>  <CHROM.1>
54.75249484,-91.02527730,-60.42828122,-175.95937963,178.00809764,-0.26943266
118.43429789,-18.93929681,-119.56579792,148.05789132,-49.86029776,-3.48643098
17.57958180,-2.99133856,-0.91438710,-1.58137196

>  <Name>
Wogonoside.pdb

>  <RI>
-2.5735e+08

>  <Rbt.Current_Directory>
/root/miniconda3/envs/rdock/share/rxdock-2013.1.1_148c5bd1-0/data/ligands/prepped_ligands/Wogonoside

>  <Rbt.Executable>
rbdock/0.1.0

>  <Rbt.Library>
librxdock.so/0.1.0

>  <Rbt.Parameter_File>
/root/miniconda3/envs/rdock/share/rxdock-2013.1.1_148c5bd1-0/data/scripts/dock.prm

>  <Rbt.Receptor>
def.prm

>  <SCORE>
-7.12813

>  <SCORE.INTER>
-7.50446

>  <SCORE.INTER.CONST>
1

>  <SCORE.INTER.POLAR>
-0.211756

>  <SCORE.INTER.REPUL>
0.0260242

>  <SCORE.INTER.ROT>
5

>  <SCORE.INTER.VDW>
-17.3146

>  <SCORE.INTER.norm>
-0.227408

>  <SCORE.INTRA>
1.44727

>  <SCORE.INTRA.DIHEDRAL>
2.4511

>  <SCORE.INTRA.DIHEDRAL.0>
10.6366

>  <SCORE.INTRA.POLAR>
-0.425596

>  <SCORE.INTRA.POLAR.0>
0

>  <SCORE.INTRA.REPUL>
0

>  <SCORE.INTRA.REPUL.0>
0

>  <SCORE.INTRA.VDW>
1.66874

>  <SCORE.INTRA.VDW.0>
-0.944467

>  <SCORE.INTRA.norm>
0.0438566

>  <SCORE.RESTR>
0

>  <SCORE.RESTR.CAVITY>
0

>  <SCORE.RESTR.norm>
0

>  <SCORE.SYSTEM>
-1.07094

>  <SCORE.SYSTEM.CONST>
0

>  <SCORE.SYSTEM.DIHEDRAL>
0.041735

>  <SCORE.SYSTEM.POLAR>
-0.00254622

>  <SCORE.SYSTEM.VDW>
-1.08315

>  <SCORE.SYSTEM.norm>
-0.0324526

>  <SCORE.heavy>
33

>  <SCORE.norm>
-0.216004

$$$$
Wogonoside.pdb
  RxDock  02242112193D
librxdock.so/0.1.0
 38 41  0  0  0  0  0  0  0  0999 V2000
  -50.7051   -3.4756   17.7728 O   0  0  0  0  0  0
  -50.8616   -1.6771   16.2953 O   0  0  0  0  0  0
  -52.4687   -6.0205   15.0735 O   0  0  0  0  0  0
  -52.7761   -3.1060   14.7871 O   0  0  0  0  0  0
  -52.3705   -6.7295   17.8914 O   0  0  0  0  0  0
  -50.9156   -5.8269   20.3110 O   0  0  0  0  0  0
  -49.1174   -4.9049   19.2570 O   0  0  0  0  0  0
  -46.3589   -1.1209   17.7267 O   0  0  0  0  0  0
  -49.0164   -0.8576   18.1893 O   0  0  0  0  0  0
  -47.3660   -3.0580   13.3994 O   0  0  0  0  0  0
  -44.9137   -2.7133   14.2664 O   0  0  0  0  0  0
  -52.4501   -5.0744   16.1437 C   0  0  0  0  0  0
  -51.8468   -3.7590   15.6503 C   0  0  0  0  0  0
  -51.6296   -5.6703   17.2879 C   0  0  0  0  0  0
  -51.5362   -2.8204   16.8172 C   0  0  0  0  0  0
  -51.3338   -4.6155   18.3466 C   0  0  0  0  0  0
  -50.3208   -5.1103   19.3274 C   0  0  0  0  0  0
  -49.5246   -1.8111   16.0587 C   0  0  0  0  0  0
  -48.5918   -1.3991   17.0112 C   0  0  0  0  0  0
  -49.0952   -2.3656   14.8522 C   0  0  0  0  0  0
  -47.2274   -1.5437   16.7537 C   0  0  0  0  0  0
  -46.8016   -2.0982   15.5481 C   0  0  0  0  0  0
  -47.7324   -2.5115   14.5927 C   0  0  0  0  0  0
  -45.3579   -2.2372   15.3023 C   0  0  0  0  0  0
  -44.9978   -1.2583   17.5020 C   0  0  0  0  0  0
  -44.4640   -1.7692   16.3808 C   0  0  0  0  0  0
  -44.1538   -0.7658   18.6092 C   0  0  0  0  0  0
  -49.3581    0.5264   18.1789 C   0  0  0  0  0  0
  -44.7424   -0.3096   19.7919 C   0  0  0  0  0  0
  -42.7626   -0.7542   18.4800 C   0  0  0  0  0  0
  -43.9451    0.1543   20.8379 C   0  0  0  0  0  0
  -41.9652   -0.2895   19.5266 C   0  0  0  0  0  0
  -42.5568    0.1646   20.7059 C   0  0  0  0  0  0
  -53.0407   -5.6637   14.3734 H   0  0  0  0  0  0
  -52.3611   -2.2845   14.4738 H   0  0  0  0  0  0
  -53.2179   -6.3667   18.2007 H   0  0  0  0  0  0
  -51.8861   -5.8923   20.1824 H   0  0  0  0  0  0
  -47.6753   -3.9737   13.3359 H   0  0  0  0  0  0
  1 15  1  0  0  0
  1 16  1  0  0  0
  2 15  1  0  0  0
  2 18  1  0  0  0
  3 12  1  0  0  0
  3 34  1  0  0  0
  4 13  1  0  0  0
  4 35  1  0  0  0
  5 14  1  0  0  0
  5 36  1  0  0  0
  6 17  1  0  0  0
  6 37  1  0  0  0
  7 17  2  0  0  0
  8 21  1  0  0  0
  8 25  1  0  0  0
  9 19  1  0  0  0
  9 28  1  0  0  0
 10 23  1  0  0  0
 10 38  1  0  0  0
 11 24  2  0  0  0
 12 13  1  0  0  0
 13 15  1  0  0  0
 14 12  1  0  0  0
 16 14  1  0  0  0
 16 17  1  0  0  0
 18 19  2  0  0  0
 18 20  1  0  0  0
 19 21  1  0  0  0
 20 23  2  0  0  0
 21 22  2  0  0  0
 22 23  1  0  0  0
 22 24  1  0  0  0
 24 26  1  0  0  0
 25 26  2  0  0  0
 25 27  1  0  0  0
 27 29  2  0  0  0
 27 30  1  0  0  0
 29 31  1  0  0  0
 30 32  2  0  0  0
 31 33  2  0  0  0
 32 33  1  0  0  0
M  END
>  <CHROM.0>
177.67095418,-65.17767023,-178.53238731

>  <CHROM.1>
39.25835584,-95.62649156,-62.31159917,-178.81364583,-57.95629623,-178.95517113
-82.21053903,-63.84517806,155.66832109,4.57630424,-48.33275566,-2.66345896
17.20435541,2.99429641,-0.49480934,-1.47639631

>  <Name>
Wogonoside.pdb

>  <RI>
-2.5735e+08

>  <Rbt.Current_Directory>
/root/miniconda3/envs/rdock/share/rxdock-2013.1.1_148c5bd1-0/data/ligands/prepped_ligands/Wogonoside

>  <Rbt.Executable>
rbdock/0.1.0

>  <Rbt.Library>
librxdock.so/0.1.0

>  <Rbt.Parameter_File>
/root/miniconda3/envs/rdock/share/rxdock-2013.1.1_148c5bd1-0/data/scripts/dock.prm

>  <Rbt.Receptor>
def.prm

>  <SCORE>
-3.29466

>  <SCORE.INTER>
-5.38128

>  <SCORE.INTER.CONST>
1

>  <SCORE.INTER.POLAR>
-0.892083

>  <SCORE.INTER.REPUL>
0.939019

>  <SCORE.INTER.ROT>
5

>  <SCORE.INTER.VDW>
-17.4433

>  <SCORE.INTER.norm>
-0.163069

>  <SCORE.INTRA>
3.14582

>  <SCORE.INTRA.DIHEDRAL>
6.12913

>  <SCORE.INTRA.DIHEDRAL.0>
10.6366

>  <SCORE.INTRA.POLAR>
-0.00735911

>  <SCORE.INTRA.POLAR.0>
0

>  <SCORE.INTRA.REPUL>
0

>  <SCORE.INTRA.REPUL.0>
0

>  <SCORE.INTRA.VDW>
0.106281

>  <SCORE.INTRA.VDW.0>
-0.944467

>  <SCORE.INTRA.norm>
0.095328

>  <SCORE.RESTR>
0.000638868

>  <SCORE.RESTR.CAVITY>
0.000638868

>  <SCORE.RESTR.norm>
1.93596e-05

>  <SCORE.SYSTEM>
-1.05985

>  <SCORE.SYSTEM.CONST>
0

>  <SCORE.SYSTEM.DIHEDRAL>
0.150886

>  <SCORE.SYSTEM.POLAR>
-0.00547168

>  <SCORE.SYSTEM.VDW>
-1.11669

>  <SCORE.SYSTEM.norm>
-0.0321166

>  <SCORE.heavy>
33

>  <SCORE.norm>
-0.0998382

$$$$
Wogonoside.pdb
  RxDock  02242112203D
librxdock.so/0.1.0
 38 41  0  0  0  0  0  0  0  0999 V2000
  -46.0417   -1.7397   18.9164 O   0  0  0  0  0  0
  -45.4351   -3.3262   17.3174 O   0  0  0  0  0  0
  -43.1827    0.8922   17.5851 O   0  0  0  0  0  0
  -42.9867   -1.9715   16.9282 O   0  0  0  0  0  0
  -44.3421    1.2198   20.2312 O   0  0  0  0  0  0
  -47.6295   -1.3295   20.9480 O   0  0  0  0  0  0
  -47.2467    0.8768   20.5236 O   0  0  0  0  0  0
  -49.9971   -4.0219   16.1610 O   0  0  0  0  0  0
  -47.8096   -4.7210   17.6003 O   0  0  0  0  0  0
  -47.4290   -0.4653   14.0999 O   0  0  0  0  0  0
  -49.9471   -0.9203   13.5198 O   0  0  0  0  0  0
  -43.6889   -0.1793   18.3828 C   0  0  0  0  0  0
  -44.1352   -1.3246   17.4735 C   0  0  0  0  0  0
  -44.8532    0.3592   19.2146 C   0  0  0  0  0  0
  -44.9466   -2.3633   18.2493 C   0  0  0  0  0  0
  -45.6160   -0.7810   19.8773 C   0  0  0  0  0  0
  -46.8987   -0.2942   20.4698 C   0  0  0  0  0  0
  -46.5342   -2.9713   16.5909 C   0  0  0  0  0  0
  -47.7326   -3.6722   16.7311 C   0  0  0  0  0  0
  -46.4505   -1.8978   15.7032 C   0  0  0  0  0  0
  -48.8480   -3.2959   15.9807 C   0  0  0  0  0  0
  -48.7615   -2.2232   15.0953 C   0  0  0  0  0  0
  -47.5638   -1.5197   14.9526 C   0  0  0  0  0  0
  -49.9519   -1.8494   14.3159 C   0  0  0  0  0  0
  -51.1232   -3.6669   15.4345 C   0  0  0  0  0  0
  -51.1646   -2.6601   14.5469 C   0  0  0  0  0  0
  -52.3013   -4.5170   15.6995 C   0  0  0  0  0  0
  -48.2624   -5.9658   17.0733 C   0  0  0  0  0  0
  -53.5107   -4.2650   15.0459 C   0  0  0  0  0  0
  -52.2124   -5.5778   16.6045 C   0  0  0  0  0  0
  -54.6229   -5.0688   15.2953 C   0  0  0  0  0  0
  -53.3255   -6.3814   16.8542 C   0  0  0  0  0  0
  -54.5309   -6.1268   16.1991 C   0  0  0  0  0  0
  -42.8344    1.5704   18.1877 H   0  0  0  0  0  0
  -43.2971   -2.7158   16.3851 H   0  0  0  0  0  0
  -44.0087    2.0268   19.8036 H   0  0  0  0  0  0
  -48.4593   -1.0271   21.3754 H   0  0  0  0  0  0
  -46.6984   -0.6187   13.4827 H   0  0  0  0  0  0
  1 15  1  0  0  0
  1 16  1  0  0  0
  2 15  1  0  0  0
  2 18  1  0  0  0
  3 12  1  0  0  0
  3 34  1  0  0  0
  4 13  1  0  0  0
  4 35  1  0  0  0
  5 14  1  0  0  0
  5 36  1  0  0  0
  6 17  1  0  0  0
  6 37  1  0  0  0
  7 17  2  0  0  0
  8 21  1  0  0  0
  8 25  1  0  0  0
  9 19  1  0  0  0
  9 28  1  0  0  0
 10 23  1  0  0  0
 10 38  1  0  0  0
 11 24  2  0  0  0
 12 13  1  0  0  0
 13 15  1  0  0  0
 14 12  1  0  0  0
 16 14  1  0  0  0
 16 17  1  0  0  0
 18 19  2  0  0  0
 18 20  1  0  0  0
 19 21  1  0  0  0
 20 23  2  0  0  0
 21 22  2  0  0  0
 22 23  1  0  0  0
 22 24  1  0  0  0
 24 26  1  0  0  0
 25 26  2  0  0  0
 25 27  1  0  0  0
 27 29  2  0  0  0
 27 30  1  0  0  0
 29 31  1  0  0  0
 30 32  2  0  0  0
 31 33  2  0  0  0
 32 33  1  0  0  0
M  END
>  <CHROM.0>
-101.46953678,63.34572888,-55.08218184

>  <CHROM.1>
41.02369753,-116.20363359,-175.03266354,177.71043908,69.83765749,-2.17603381
-125.45091427,55.73844058,55.17595451,179.36534519,-47.99249150,-2.38728705
17.03174835,0.28499119,0.54011491,1.68114739

>  <Name>
Wogonoside.pdb

>  <RI>
-2.5735e+08

>  <Rbt.Current_Directory>
/root/miniconda3/envs/rdock/share/rxdock-2013.1.1_148c5bd1-0/data/ligands/prepped_ligands/Wogonoside

>  <Rbt.Executable>
rbdock/0.1.0

>  <Rbt.Library>
librxdock.so/0.1.0

>  <Rbt.Parameter_File>
/root/miniconda3/envs/rdock/share/rxdock-2013.1.1_148c5bd1-0/data/scripts/dock.prm

>  <Rbt.Receptor>
def.prm

>  <SCORE>
-15.068

>  <SCORE.INTER>
-19.7487

>  <SCORE.INTER.CONST>
1

>  <SCORE.INTER.POLAR>
-2.64237

>  <SCORE.INTER.REPUL>
0.0182103

>  <SCORE.INTER.ROT>
5

>  <SCORE.INTER.VDW>
-21.2557

>  <SCORE.INTER.norm>
-0.598445

>  <SCORE.INTRA>
3.75945

>  <SCORE.INTRA.DIHEDRAL>
2.82489

>  <SCORE.INTRA.DIHEDRAL.0>
10.6366

>  <SCORE.INTRA.POLAR>
-0.0138998

>  <SCORE.INTRA.POLAR.0>
0

>  <SCORE.INTRA.REPUL>
0.0601996

>  <SCORE.INTRA.REPUL.0>
0

>  <SCORE.INTRA.VDW>
2.09326

>  <SCORE.INTRA.VDW.0>
-0.944467

>  <SCORE.INTRA.norm>
0.113923

>  <SCORE.RESTR>
0

>  <SCORE.RESTR.CAVITY>
0

>  <SCORE.RESTR.norm>
0

>  <SCORE.SYSTEM>
0.921237

>  <SCORE.SYSTEM.CONST>
0

>  <SCORE.SYSTEM.DIHEDRAL>
2.93935

>  <SCORE.SYSTEM.POLAR>
-0.0113053

>  <SCORE.SYSTEM.VDW>
-0.509998

>  <SCORE.SYSTEM.norm>
0.0279163

>  <SCORE.heavy>
33

>  <SCORE.norm>
-0.456606

$$$$
Wogonoside.pdb
  RxDock  02242112203D
librxdock.so/0.1.0
 38 41  0  0  0  0  0  0  0  0999 V2000
  -52.5382   -4.3753   18.5784 O   0  0  0  0  0  0
  -53.0441   -3.7036   16.4024 O   0  0  0  0  0  0
  -51.3529   -8.0941   17.2983 O   0  0  0  0  0  0
  -53.0598   -6.4093   15.5899 O   0  0  0  0  0  0
  -52.0254   -7.6640   20.0941 O   0  0  0  0  0  0
  -51.4927   -5.6998   21.6073 O   0  0  0  0  0  0
  -51.9239   -3.5555   20.9665 O   0  0  0  0  0  0
  -48.9922   -1.2483   16.8337 O   0  0  0  0  0  0
  -51.4625   -1.8775   17.7542 O   0  0  0  0  0  0
  -49.6569   -4.3101   13.1356 O   0  0  0  0  0  0
  -47.4563   -2.9161   13.4488 O   0  0  0  0  0  0
  -52.2878   -7.1189   17.7629 C   0  0  0  0  0  0
  -52.3673   -5.9700   16.7572 C   0  0  0  0  0  0
  -51.8193   -6.6296   19.1335 C   0  0  0  0  0  0
  -53.1226   -4.7750   17.3407 C   0  0  0  0  0  0
  -52.6058   -5.3981   19.5648 C   0  0  0  0  0  0
  -51.9858   -4.7601   20.7655 C   0  0  0  0  0  0
  -51.8011   -3.3893   15.9358 C   0  0  0  0  0  0
  -51.0012   -2.4693   16.6147 C   0  0  0  0  0  0
  -51.3338   -3.9973   14.7699 C   0  0  0  0  0  0
  -49.7316   -2.1592   16.1242 C   0  0  0  0  0  0
  -49.2675   -2.7682   14.9598 C   0  0  0  0  0  0
  -50.0654   -3.6893   14.2779 C   0  0  0  0  0  0
  -47.9264   -2.4216   14.4644 C   0  0  0  0  0  0
  -47.7245   -0.9257   16.3745 C   0  0  0  0  0  0
  -47.1691   -1.4376   15.2642 C   0  0  0  0  0  0
  -47.0190    0.0684   17.2079 C   0  0  0  0  0  0
  -50.6587   -2.0123   18.9239 C   0  0  0  0  0  0
  -47.7422    0.9286   18.0388 C   0  0  0  0  0  0
  -45.6248    0.1535   17.1704 C   0  0  0  0  0  0
  -47.0757    1.8666   18.8269 C   0  0  0  0  0  0
  -44.9583    1.0925   17.9586 C   0  0  0  0  0  0
  -45.6841    1.9490   18.7871 C   0  0  0  0  0  0
  -51.3377   -8.8202   17.9442 H   0  0  0  0  0  0
  -52.5616   -7.1549   15.2142 H   0  0  0  0  0  0
  -51.7472   -7.3285   20.9631 H   0  0  0  0  0  0
  -51.0620   -5.2998   22.3928 H   0  0  0  0  0  0
  -48.7008   -4.4636   13.1558 H   0  0  0  0  0  0
  1 15  1  0  0  0
  1 16  1  0  0  0
  2 15  1  0  0  0
  2 18  1  0  0  0
  3 12  1  0  0  0
  3 34  1  0  0  0
  4 13  1  0  0  0
  4 35  1  0  0  0
  5 14  1  0  0  0
  5 36  1  0  0  0
  6 17  1  0  0  0
  6 37  1  0  0  0
  7 17  2  0  0  0
  8 21  1  0  0  0
  8 25  1  0  0  0
  9 19  1  0  0  0
  9 28  1  0  0  0
 10 23  1  0  0  0
 10 38  1  0  0  0
 11 24  2  0  0  0
 12 13  1  0  0  0
 13 15  1  0  0  0
 14 12  1  0  0  0
 16 14  1  0  0  0
 16 17  1  0  0  0
 18 19  2  0  0  0
 18 20  1  0  0  0
 19 21  1  0  0  0
 20 23  2  0  0  0
 21 22  2  0  0  0
 22 23  1  0  0  0
 22 24  1  0  0  0
 24 26  1  0  0  0
 25 26  2  0  0  0
 25 27  1  0  0  0
 27 29  2  0  0  0
 27 30  1  0  0  0
 29 31  1  0  0  0
 30 32  2  0  0  0
 31 33  2  0  0  0
 32 33  1  0  0  0
M  END
>  <CHROM.0>
-179.06302474,-176.10240660,61.50601626

>  <CHROM.1>
69.65517098,-88.45351329,-178.71523709,-59.98252863,-178.37682763,-1.13242444
124.16777347,-146.63237171,-155.91788742,-22.20545363,-50.16244788,-3.28754675
17.28154566,3.13275418,-0.86515952,-1.81613492

>  <Name>
Wogonoside.pdb

>  <RI>
-2.5735e+08

>  <Rbt.Current_Directory>
/root/miniconda3/envs/rdock/share/rxdock-2013.1.1_148c5bd1-0/data/ligands/prepped_ligands/Wogonoside

>  <Rbt.Executable>
rbdock/0.1.0

>  <Rbt.Library>
librxdock.so/0.1.0

>  <Rbt.Parameter_File>
/root/miniconda3/envs/rdock/share/rxdock-2013.1.1_148c5bd1-0/data/scripts/dock.prm

>  <Rbt.Receptor>
def.prm

>  <SCORE>
-13.4718

>  <SCORE.INTER>
-13.5545

>  <SCORE.INTER.CONST>
1

>  <SCORE.INTER.POLAR>
-1.74296

>  <SCORE.INTER.REPUL>
0.0628576

>  <SCORE.INTER.ROT>
5

>  <SCORE.INTER.VDW>
-18.3428

>  <SCORE.INTER.norm>
-0.410743

>  <SCORE.INTRA>
1.08856

>  <SCORE.INTRA.DIHEDRAL>
1.43704

>  <SCORE.INTRA.DIHEDRAL.0>
10.6366

>  <SCORE.INTRA.POLAR>
-0.663362

>  <SCORE.INTRA.POLAR.0>
0

>  <SCORE.INTRA.REPUL>
0

>  <SCORE.INTRA.REPUL.0>
0

>  <SCORE.INTRA.VDW>
2.62547

>  <SCORE.INTRA.VDW.0>
-0.944467

>  <SCORE.INTRA.norm>
0.0329867

>  <SCORE.RESTR>
0.00726908

>  <SCORE.RESTR.CAVITY>
0.00726908

>  <SCORE.RESTR.norm>
0.000220275

>  <SCORE.SYSTEM>
-1.01306

>  <SCORE.SYSTEM.CONST>
0

>  <SCORE.SYSTEM.DIHEDRAL>
0.0807463

>  <SCORE.SYSTEM.POLAR>
-0.00451691

>  <SCORE.SYSTEM.VDW>
-1.03808

>  <SCORE.SYSTEM.norm>
-0.0306988

>  <SCORE.heavy>
33

>  <SCORE.norm>
-0.408235

$$$$
Wogonoside.pdb
  RxDock  02242112203D
librxdock.so/0.1.0
 38 41  0  0  0  0  0  0  0  0999 V2000
  -46.3645   -0.6325   17.2119 O   0  0  0  0  0  0
  -48.4225    0.4291   16.9295 O   0  0  0  0  0  0
  -45.4581    1.6974   20.4713 O   0  0  0  0  0  0
  -47.5298    2.5548   18.5624 O   0  0  0  0  0  0
  -43.3454    0.2806   19.0632 O   0  0  0  0  0  0
  -43.4642   -1.9794   16.4690 O   0  0  0  0  0  0
  -44.8943   -2.8570   18.0115 O   0  0  0  0  0  0
  -51.5631   -3.1395   16.7437 O   0  0  0  0  0  0
  -50.3364   -1.0310   15.5625 O   0  0  0  0  0  0
  -48.9395   -2.3483   20.7416 O   0  0  0  0  0  0
  -50.6936   -4.2904   20.5538 O   0  0  0  0  0  0
  -45.4943    1.3680   19.0817 C   0  0  0  0  0  0
  -46.9483    1.2534   18.6230 C   0  0  0  0  0  0
  -44.7425    0.0509   18.8878 C   0  0  0  0  0  0
  -47.0422    0.6218   17.2333 C   0  0  0  0  0  0
  -44.9750   -0.5024   17.4876 C   0  0  0  0  0  0
  -44.4687   -1.9039   17.3745 C   0  0  0  0  0  0
  -49.0379   -0.6316   17.5275 C   0  0  0  0  0  0
  -50.0030   -1.3698   16.8414 C   0  0  0  0  0  0
  -48.6935   -0.9743   18.8358 C   0  0  0  0  0  0
  -50.6229   -2.4526   17.4676 C   0  0  0  0  0  0
  -50.2766   -2.7926   18.7740 C   0  0  0  0  0  0
  -49.3112   -2.0560   19.4635 C   0  0  0  0  0  0
  -50.9469   -3.9372   19.4101 C   0  0  0  0  0  0
  -52.1905   -4.2240   17.3370 C   0  0  0  0  0  0
  -51.9498   -4.6453   18.5891 C   0  0  0  0  0  0
  -53.1885   -4.8866   16.4734 C   0  0  0  0  0  0
  -49.3614   -1.2798   14.5526 C   0  0  0  0  0  0
  -54.5109   -4.4345   16.4536 C   0  0  0  0  0  0
  -52.8156   -5.9683   15.6715 C   0  0  0  0  0  0
  -55.4531   -5.0595   15.6370 C   0  0  0  0  0  0
  -53.7586   -6.5937   14.8550 C   0  0  0  0  0  0
  -55.0776   -6.1388   14.8378 C   0  0  0  0  0  0
  -45.9210    0.9924   20.9543 H   0  0  0  0  0  0
  -48.4687    2.4482   18.3336 H   0  0  0  0  0  0
  -43.2072    0.6276   19.9608 H   0  0  0  0  0  0
  -43.1502   -2.9006   16.3445 H   0  0  0  0  0  0
  -49.6413   -2.8373   21.1960 H   0  0  0  0  0  0
  1 15  1  0  0  0
  1 16  1  0  0  0
  2 15  1  0  0  0
  2 18  1  0  0  0
  3 12  1  0  0  0
  3 34  1  0  0  0
  4 13  1  0  0  0
  4 35  1  0  0  0
  5 14  1  0  0  0
  5 36  1  0  0  0
  6 17  1  0  0  0
  6 37  1  0  0  0
  7 17  2  0  0  0
  8 21  1  0  0  0
  8 25  1  0  0  0
  9 19  1  0  0  0
  9 28  1  0  0  0
 10 23  1  0  0  0
 10 38  1  0  0  0
 11 24  2  0  0  0
 12 13  1  0  0  0
 13 15  1  0  0  0
 14 12  1  0  0  0
 16 14  1  0  0  0
 16 17  1  0  0  0
 18 19  2  0  0  0
 18 20  1  0  0  0
 19 21  1  0  0  0
 20 23  2  0  0  0
 21 22  2  0  0  0
 22 23  1  0  0  0
 22 24  1  0  0  0
 24 26  1  0  0  0
 25 26  2  0  0  0
 25 27  1  0  0  0
 27 29  2  0  0  0
 27 30  1  0  0  0
 29 31  1  0  0  0
 30 32  2  0  0  0
 31 33  2  0  0  0
 32 33  1  0  0  0
M  END
>  <CHROM.0>
56.90236033,-62.44356504,68.44342630

>  <CHROM.1>
43.09869153,-143.35887735,59.22784386,-175.85060719,59.48246793,3.29634470
70.44794903,156.56347506,123.94519115,-87.44219687,-48.97132199,-1.94870742
17.67089879,-0.28931586,-0.53210770,-1.71572512

>  <Name>
Wogonoside.pdb

>  <RI>
-2.5735e+08

>  <Rbt.Current_Directory>
/root/miniconda3/envs/rdock/share/rxdock-2013.1.1_148c5bd1-0/data/ligands/prepped_ligands/Wogonoside

>  <Rbt.Executable>
rbdock/0.1.0

>  <Rbt.Library>
librxdock.so/0.1.0

>  <Rbt.Parameter_File>
/root/miniconda3/envs/rdock/share/rxdock-2013.1.1_148c5bd1-0/data/scripts/dock.prm

>  <Rbt.Receptor>
def.prm

>  <SCORE>
-13.2737

>  <SCORE.INTER>
-15.4147

>  <SCORE.INTER.CONST>
1

>  <SCORE.INTER.POLAR>
-1.80178

>  <SCORE.INTER.REPUL>
0

>  <SCORE.INTER.ROT>
5

>  <SCORE.INTER.VDW>
-19.6887

>  <SCORE.INTER.norm>
-0.467112

>  <SCORE.INTRA>
3.06219

>  <SCORE.INTRA.DIHEDRAL>
4.81277

>  <SCORE.INTRA.DIHEDRAL.0>
10.6366

>  <SCORE.INTRA.POLAR>
-0.00199697

>  <SCORE.INTRA.POLAR.0>
0

>  <SCORE.INTRA.REPUL>
0

>  <SCORE.INTRA.REPUL.0>
0

>  <SCORE.INTRA.VDW>
0.662594

>  <SCORE.INTRA.VDW.0>
-0.944467

>  <SCORE.INTRA.norm>
0.0927936

>  <SCORE.RESTR>
0

>  <SCORE.RESTR.CAVITY>
0

>  <SCORE.RESTR.norm>
0

>  <SCORE.SYSTEM>
-0.921148

>  <SCORE.SYSTEM.CONST>
0

>  <SCORE.SYSTEM.DIHEDRAL>
0.221912

>  <SCORE.SYSTEM.POLAR>
-0.0153571

>  <SCORE.SYSTEM.VDW>
-0.979889

>  <SCORE.SYSTEM.norm>
-0.0279136

>  <SCORE.heavy>
33

>  <SCORE.norm>
-0.402232

$$$$
