Wogonoside.pdb
  RxDock  02242110113D
librxdock.so/0.1.0
 38 41  0  0  0  0  0  0  0  0999 V2000
  -46.2577   -1.2192   18.4693 O   0  0  0  0  0  0
  -47.6478   -1.7085   16.6609 O   0  0  0  0  0  0
  -42.8990   -2.2420   16.3371 O   0  0  0  0  0  0
  -45.5517   -3.1829   15.4717 O   0  0  0  0  0  0
  -42.7965   -2.1149   19.2400 O   0  0  0  0  0  0
  -45.0627    0.6878   19.7671 O   0  0  0  0  0  0
  -45.0825   -0.7643   21.5237 O   0  0  0  0  0  0
  -51.6609   -4.2552   16.4570 O   0  0  0  0  0  0
  -49.2369   -3.6117   15.4296 O   0  0  0  0  0  0
  -50.9334   -1.0513   20.0204 O   0  0  0  0  0  0
  -53.1161   -2.4949   19.8306 O   0  0  0  0  0  0
  -44.0147   -2.4849   17.1956 C   0  0  0  0  0  0
  -45.3108   -2.1708   16.4478 C   0  0  0  0  0  0
  -43.8583   -1.6042   18.4355 C   0  0  0  0  0  0
  -46.5051   -2.1320   17.4022 C   0  0  0  0  0  0
  -45.1389   -1.6012   19.2607 C   0  0  0  0  0  0
  -45.0910   -0.5484   20.3202 C   0  0  0  0  0  0
  -48.8675   -2.0297   17.1811 C   0  0  0  0  0  0
  -49.6711   -2.9885   16.5630 C   0  0  0  0  0  0
  -49.3073   -1.3897   18.3406 C   0  0  0  0  0  0
  -50.9163   -3.3060   17.1084 C   0  0  0  0  0  0
  -51.3526   -2.6654   18.2666 C   0  0  0  0  0  0
  -50.5509   -1.7054   18.8877 C   0  0  0  0  0  0
  -52.6697   -3.0181   18.8187 C   0  0  0  0  0  0
  -52.8990   -4.5963   16.9793 C   0  0  0  0  0  0
  -53.4322   -4.0466   18.0824 C   0  0  0  0  0  0
  -53.6188   -5.6215   16.1974 C   0  0  0  0  0  0
  -49.3916   -2.9030   14.2023 C   0  0  0  0  0  0
  -54.2393   -5.2790   14.9928 C   0  0  0  0  0  0
  -53.6824   -6.9393   16.6576 C   0  0  0  0  0  0
  -54.9180   -6.2477   14.2537 C   0  0  0  0  0  0
  -54.3620   -7.9081   15.9182 C   0  0  0  0  0  0
  -54.9797   -7.5620   14.7159 C   0  0  0  0  0  0
  -42.8811   -2.9476   15.6690 H   0  0  0  0  0  0
  -44.8264   -3.1481   14.8252 H   0  0  0  0  0  0
  -42.0106   -2.2120   18.6759 H   0  0  0  0  0  0
  -45.0170    1.3936   20.4471 H   0  0  0  0  0  0
  -51.8983   -0.9770   20.0603 H   0  0  0  0  0  0
  1 15  1  0  0  0
  1 16  1  0  0  0
  2 15  1  0  0  0
  2 18  1  0  0  0
  3 12  1  0  0  0
  3 34  1  0  0  0
  4 13  1  0  0  0
  4 35  1  0  0  0
  5 14  1  0  0  0
  5 36  1  0  0  0
  6 17  1  0  0  0
  6 37  1  0  0  0
  7 17  2  0  0  0
  8 21  1  0  0  0
  8 25  1  0  0  0
  9 19  1  0  0  0
  9 28  1  0  0  0
 10 23  1  0  0  0
 10 38  1  0  0  0
 11 24  2  0  0  0
 12 13  1  0  0  0
 13 15  1  0  0  0
 14 12  1  0  0  0
 16 14  1  0  0  0
 16 17  1  0  0  0
 18 19  2  0  0  0
 18 20  1  0  0  0
 19 21  1  0  0  0
 20 23  2  0  0  0
 21 22  2  0  0  0
 22 23  1  0  0  0
 22 24  1  0  0  0
 24 26  1  0  0  0
 25 26  2  0  0  0
 25 27  1  0  0  0
 27 29  2  0  0  0
 27 30  1  0  0  0
 29 31  1  0  0  0
 30 32  2  0  0  0
 31 33  2  0  0  0
 32 33  1  0  0  0
M  END
>  <CHROM.0>
-44.02203882,-176.91425682,-66.23297216

>  <CHROM.1>
-81.04899559,-109.73071909,-72.32210759,-63.53544757,52.50225957,1.10311138
-80.77001655,150.86349232,-53.81013247,-75.86861044,-49.03488748,-2.96185399
17.46918936,0.42238365,0.22133982,0.97118106

>  <Name>
Wogonoside.pdb

>  <RI>
-8.77624e+08

>  <Rbt.Current_Directory>
/root/miniconda3/envs/rdock/share/rxdock-2013.1.1_148c5bd1-0/data/ligands/prepped_ligands/Wogonoside

>  <Rbt.Executable>
rbdock/0.1.0

>  <Rbt.Library>
librxdock.so/0.1.0

>  <Rbt.Parameter_File>
/root/miniconda3/envs/rdock/share/rxdock-2013.1.1_148c5bd1-0/data/scripts/dock.prm

>  <Rbt.Receptor>
def.prm

>  <SCORE>
-13.0908

>  <SCORE.INTER>
-14.8738

>  <SCORE.INTER.CONST>
1

>  <SCORE.INTER.POLAR>
-1.52167

>  <SCORE.INTER.REPUL>
0.165725

>  <SCORE.INTER.ROT>
5

>  <SCORE.INTER.VDW>
-20.9287

>  <SCORE.INTER.norm>
-0.45072

>  <SCORE.INTRA>
2.3193

>  <SCORE.INTRA.DIHEDRAL>
7.8343

>  <SCORE.INTRA.DIHEDRAL.0>
10.6366

>  <SCORE.INTRA.POLAR>
0

>  <SCORE.INTRA.POLAR.0>
0

>  <SCORE.INTRA.REPUL>
0

>  <SCORE.INTRA.REPUL.0>
0

>  <SCORE.INTRA.VDW>
-1.59785

>  <SCORE.INTRA.VDW.0>
-0.944467

>  <SCORE.INTRA.norm>
0.0702819

>  <SCORE.RESTR>
0.104441

>  <SCORE.RESTR.CAVITY>
0.104441

>  <SCORE.RESTR.norm>
0.00316489

>  <SCORE.SYSTEM>
-0.640803

>  <SCORE.SYSTEM.CONST>
0

>  <SCORE.SYSTEM.DIHEDRAL>
0.730599

>  <SCORE.SYSTEM.VDW>
-1.0061

>  <SCORE.SYSTEM.norm>
-0.0194183

>  <SCORE.heavy>
33

>  <SCORE.norm>
-0.396691

$$$$
Wogonoside.pdb
  RxDock  02242110113D
librxdock.so/0.1.0
 38 41  0  0  0  0  0  0  0  0999 V2000
  -46.3256   -1.3458   19.2065 O   0  0  0  0  0  0
  -45.3959   -2.4446   17.3707 O   0  0  0  0  0  0
  -44.3924    2.1532   18.2613 O   0  0  0  0  0  0
  -43.4470   -0.4100   17.1624 O   0  0  0  0  0  0
  -45.4416    1.7495   20.9426 O   0  0  0  0  0  0
  -47.6115   -1.5459   21.7530 O   0  0  0  0  0  0
  -48.2988    0.4358   20.8615 O   0  0  0  0  0  0
  -49.8977   -3.4376   16.1956 O   0  0  0  0  0  0
  -47.7100   -3.9235   17.7198 O   0  0  0  0  0  0
  -47.4527    0.0698   13.9123 O   0  0  0  0  0  0
  -49.9355   -0.5447   13.3271 O   0  0  0  0  0  0
  -44.5338    0.8778   18.8892 C   0  0  0  0  0  0
  -44.6964   -0.2017   17.8187 C   0  0  0  0  0  0
  -45.7517    0.9370   19.8116 C   0  0  0  0  0  0
  -45.1410   -1.5293   18.4344 C   0  0  0  0  0  0
  -46.1279   -0.4565   20.2991 C   0  0  0  0  0  0
  -47.4587   -0.4449   20.9789 C   0  0  0  0  0  0
  -46.4952   -2.1971   16.6013 C   0  0  0  0  0  0
  -47.6632   -2.9406   16.7746 C   0  0  0  0  0  0
  -46.4425   -1.1908   15.6359 C   0  0  0  0  0  0
  -48.7793   -2.6744   15.9795 C   0  0  0  0  0  0
  -48.7238   -1.6685   15.0165 C   0  0  0  0  0  0
  -47.5566   -0.9226   14.8405 C   0  0  0  0  0  0
  -49.9141   -1.4104   14.1915 C   0  0  0  0  0  0
  -51.0240   -3.1913   15.4257 C   0  0  0  0  0  0
  -51.0932   -2.2572   14.4635 C   0  0  0  0  0  0
  -52.1674   -4.0731   15.7352 C   0  0  0  0  0  0
  -47.9265   -5.2548   17.2582 C   0  0  0  0  0  0
  -52.1243   -4.9138   16.8508 C   0  0  0  0  0  0
  -53.2983   -4.0707   14.9145 C   0  0  0  0  0  0
  -53.2048   -5.7456   17.1438 C   0  0  0  0  0  0
  -54.3789   -4.9035   15.2076 C   0  0  0  0  0  0
  -54.3320   -5.7409   16.3227 C   0  0  0  0  0  0
  -45.2205    2.3440   17.7897 H   0  0  0  0  0  0
  -42.8045   -0.6946   17.8342 H   0  0  0  0  0  0
  -46.2429    1.8257   21.4879 H   0  0  0  0  0  0
  -48.4790   -1.5554   22.2112 H   0  0  0  0  0  0
  -48.2822    0.1634   13.4209 H   0  0  0  0  0  0
  1 15  1  0  0  0
  1 16  1  0  0  0
  2 15  1  0  0  0
  2 18  1  0  0  0
  3 12  1  0  0  0
  3 34  1  0  0  0
  4 13  1  0  0  0
  4 35  1  0  0  0
  5 14  1  0  0  0
  5 36  1  0  0  0
  6 17  1  0  0  0
  6 37  1  0  0  0
  7 17  2  0  0  0
  8 21  1  0  0  0
  8 25  1  0  0  0
  9 19  1  0  0  0
  9 28  1  0  0  0
 10 23  1  0  0  0
 10 38  1  0  0  0
 11 24  2  0  0  0
 12 13  1  0  0  0
 13 15  1  0  0  0
 14 12  1  0  0  0
 16 14  1  0  0  0
 16 17  1  0  0  0
 18 19  2  0  0  0
 18 20  1  0  0  0
 19 21  1  0  0  0
 20 23  2  0  0  0
 21 22  2  0  0  0
 22 23  1  0  0  0
 22 24  1  0  0  0
 24 26  1  0  0  0
 25 26  2  0  0  0
 25 27  1  0  0  0
 27 29  2  0  0  0
 27 30  1  0  0  0
 29 31  1  0  0  0
 30 32  2  0  0  0
 31 33  2  0  0  0
 32 33  1  0  0  0
M  END
>  <CHROM.0>
-171.33580938,64.16718427,56.80297500

>  <CHROM.1>
50.18017672,-102.86065382,64.05230314,60.08996282,176.26262100,0.01048625
-117.63662671,179.84675558,79.45820436,9.24390418,-48.18847178,-1.82316266
17.21907533,0.35484963,0.60632024,1.67920827

>  <Name>
Wogonoside.pdb

>  <RI>
-8.77624e+08

>  <Rbt.Current_Directory>
/root/miniconda3/envs/rdock/share/rxdock-2013.1.1_148c5bd1-0/data/ligands/prepped_ligands/Wogonoside

>  <Rbt.Executable>
rbdock/0.1.0

>  <Rbt.Library>
librxdock.so/0.1.0

>  <Rbt.Parameter_File>
/root/miniconda3/envs/rdock/share/rxdock-2013.1.1_148c5bd1-0/data/scripts/dock.prm

>  <Rbt.Receptor>
def.prm

>  <SCORE>
-12.0083

>  <SCORE.INTER>
-13.693

>  <SCORE.INTER.CONST>
1

>  <SCORE.INTER.POLAR>
-1.14727

>  <SCORE.INTER.REPUL>
0

>  <SCORE.INTER.ROT>
5

>  <SCORE.INTER.VDW>
-20.1923

>  <SCORE.INTER.norm>
-0.414939

>  <SCORE.INTRA>
2.57362

>  <SCORE.INTRA.DIHEDRAL>
-0.418506

>  <SCORE.INTRA.DIHEDRAL.0>
10.6366

>  <SCORE.INTRA.POLAR>
0

>  <SCORE.INTRA.POLAR.0>
0

>  <SCORE.INTRA.REPUL>
0.329107

>  <SCORE.INTRA.REPUL.0>
0

>  <SCORE.INTRA.VDW>
1.13734

>  <SCORE.INTRA.VDW.0>
-0.944467

>  <SCORE.INTRA.norm>
0.0779885

>  <SCORE.RESTR>
0

>  <SCORE.RESTR.CAVITY>
0

>  <SCORE.RESTR.norm>
0

>  <SCORE.SYSTEM>
-0.888956

>  <SCORE.SYSTEM.CONST>
0

>  <SCORE.SYSTEM.DIHEDRAL>
0.289183

>  <SCORE.SYSTEM.VDW>
-1.03355

>  <SCORE.SYSTEM.norm>
-0.026938

>  <SCORE.heavy>
33

>  <SCORE.norm>
-0.363888

$$$$
Wogonoside.pdb
  RxDock  02242110113D
librxdock.so/0.1.0
 38 41  0  0  0  0  0  0  0  0999 V2000
  -53.4787   -5.7182   16.4440 O   0  0  0  0  0  0
  -52.0001   -4.1384   17.3158 O   0  0  0  0  0  0
  -51.8192   -8.7180   18.7069 O   0  0  0  0  0  0
  -50.3254   -6.2285   18.2151 O   0  0  0  0  0  0
  -53.4346   -9.3746   16.3804 O   0  0  0  0  0  0
  -55.3589   -8.0177   14.6401 O   0  0  0  0  0  0
  -55.9664   -6.3078   16.0190 O   0  0  0  0  0  0
  -47.6827   -2.1677   16.9851 O   0  0  0  0  0  0
  -49.4339   -3.7740   18.2884 O   0  0  0  0  0  0
  -51.0907   -1.2499   13.6631 O   0  0  0  0  0  0
  -48.6862   -0.2050   13.5589 O   0  0  0  0  0  0
  -51.9518   -7.8838   17.5548 C   0  0  0  0  0  0
  -51.7133   -6.4265   17.9508 C   0  0  0  0  0  0
  -53.3560   -8.0845   16.9843 C   0  0  0  0  0  0
  -52.1279   -5.4730   16.8292 C   0  0  0  0  0  0
  -53.6655   -7.0308   15.9284 C   0  0  0  0  0  0
  -55.1131   -7.0526   15.5582 C   0  0  0  0  0  0
  -51.1214   -3.3289   16.6570 C   0  0  0  0  0  0
  -49.8271   -3.1429   17.1444 C   0  0  0  0  0  0
  -51.5282   -2.6856   15.4873 C   0  0  0  0  0  0
  -48.9402   -2.3117   16.4580 C   0  0  0  0  0  0
  -49.3492   -1.6710   15.2900 C   0  0  0  0  0  0
  -50.6436   -1.8548   14.7995 C   0  0  0  0  0  0
  -48.3946   -0.7994   14.5879 C   0  0  0  0  0  0
  -46.7777   -1.3538   16.3214 C   0  0  0  0  0  0
  -47.0532   -0.6784   15.1940 C   0  0  0  0  0  0
  -45.4578   -1.2638   16.9774 C   0  0  0  0  0  0
  -49.7433   -3.1293   19.5217 C   0  0  0  0  0  0
  -44.7396   -2.4258   17.2731 C   0  0  0  0  0  0
  -44.9201   -0.0165   17.3051 C   0  0  0  0  0  0
  -43.4924   -2.3406   17.8914 C   0  0  0  0  0  0
  -43.6725    0.0684   17.9243 C   0  0  0  0  0  0
  -42.9586   -1.0941   18.2172 C   0  0  0  0  0  0
  -50.9088   -8.6270   19.0345 H   0  0  0  0  0  0
  -49.8389   -6.4170   17.3947 H   0  0  0  0  0  0
  -54.2409   -9.4051   15.8379 H   0  0  0  0  0  0
  -56.2750   -7.9692   14.2922 H   0  0  0  0  0  0
  -51.8736   -1.7062   13.3209 H   0  0  0  0  0  0
  1 15  1  0  0  0
  1 16  1  0  0  0
  2 15  1  0  0  0
  2 18  1  0  0  0
  3 12  1  0  0  0
  3 34  1  0  0  0
  4 13  1  0  0  0
  4 35  1  0  0  0
  5 14  1  0  0  0
  5 36  1  0  0  0
  6 17  1  0  0  0
  6 37  1  0  0  0
  7 17  2  0  0  0
  8 21  1  0  0  0
  8 25  1  0  0  0
  9 19  1  0  0  0
  9 28  1  0  0  0
 10 23  1  0  0  0
 10 38  1  0  0  0
 11 24  2  0  0  0
 12 13  1  0  0  0
 13 15  1  0  0  0
 14 12  1  0  0  0
 16 14  1  0  0  0
 16 17  1  0  0  0
 18 19  2  0  0  0
 18 20  1  0  0  0
 19 21  1  0  0  0
 20 23  2  0  0  0
 21 22  2  0  0  0
 22 23  1  0  0  0
 22 24  1  0  0  0
 24 26  1  0  0  0
 25 26  2  0  0  0
 25 27  1  0  0  0
 27 29  2  0  0  0
 27 30  1  0  0  0
 29 31  1  0  0  0
 30 32  2  0  0  0
 31 33  2  0  0  0
 32 33  1  0  0  0
M  END
>  <CHROM.0>
-179.07753476,-62.43903938,58.77007119

>  <CHROM.1>
-120.75694520,-97.41685363,-61.83083155,61.69349719,-166.20670907,8.06585609
-85.17344893,-18.97766431,158.26371118,54.53358655,-50.04393764,-3.96002369
16.61050506,2.65008173,0.46146708,2.50424097

>  <Name>
Wogonoside.pdb

>  <RI>
-8.77624e+08

>  <Rbt.Current_Directory>
/root/miniconda3/envs/rdock/share/rxdock-2013.1.1_148c5bd1-0/data/ligands/prepped_ligands/Wogonoside

>  <Rbt.Executable>
rbdock/0.1.0

>  <Rbt.Library>
librxdock.so/0.1.0

>  <Rbt.Parameter_File>
/root/miniconda3/envs/rdock/share/rxdock-2013.1.1_148c5bd1-0/data/scripts/dock.prm

>  <Rbt.Receptor>
def.prm

>  <SCORE>
-17.3775

>  <SCORE.INTER>
-18.9434

>  <SCORE.INTER.CONST>
1

>  <SCORE.INTER.POLAR>
-2.54887

>  <SCORE.INTER.REPUL>
0.188839

>  <SCORE.INTER.ROT>
5

>  <SCORE.INTER.VDW>
-21.6214

>  <SCORE.INTER.norm>
-0.574043

>  <SCORE.INTRA>
2.62191

>  <SCORE.INTRA.DIHEDRAL>
12.3901

>  <SCORE.INTRA.DIHEDRAL.0>
10.6366

>  <SCORE.INTRA.POLAR>
-0.725931

>  <SCORE.INTRA.POLAR.0>
0

>  <SCORE.INTRA.REPUL>
0

>  <SCORE.INTRA.REPUL.0>
0

>  <SCORE.INTRA.VDW>
-1.10497

>  <SCORE.INTRA.VDW.0>
-0.944467

>  <SCORE.INTRA.norm>
0.0794518

>  <SCORE.RESTR>
0

>  <SCORE.RESTR.CAVITY>
0

>  <SCORE.RESTR.norm>
0

>  <SCORE.SYSTEM>
-1.056

>  <SCORE.SYSTEM.CONST>
0

>  <SCORE.SYSTEM.DIHEDRAL>
0.0356688

>  <SCORE.SYSTEM.VDW>
-1.07384

>  <SCORE.SYSTEM.norm>
-0.0320001

>  <SCORE.heavy>
33

>  <SCORE.norm>
-0.526591

$$$$
Wogonoside.pdb
  RxDock  02242110113D
librxdock.so/0.1.0
 38 41  0  0  0  0  0  0  0  0999 V2000
  -51.8669   -4.6554   17.6820 O   0  0  0  0  0  0
  -53.1515   -2.9089   16.8209 O   0  0  0  0  0  0
  -53.9848   -7.4481   15.5398 O   0  0  0  0  0  0
  -55.1179   -4.7732   16.0213 O   0  0  0  0  0  0
  -52.3933   -8.2716   17.8295 O   0  0  0  0  0  0
  -50.1831   -6.0668   19.8799 O   0  0  0  0  0  0
  -49.5192   -6.4223   17.7288 O   0  0  0  0  0  0
  -48.9166   -0.7466   16.9711 O   0  0  0  0  0  0
  -51.2029   -1.5145   18.2074 O   0  0  0  0  0  0
  -50.5170   -2.7877   12.8766 O   0  0  0  0  0  0
  -48.1970   -1.5741   13.0473 O   0  0  0  0  0  0
  -53.7040   -6.6182   16.6682 C   0  0  0  0  0  0
  -53.7604   -5.1495   16.2469 C   0  0  0  0  0  0
  -52.3204   -6.9938   17.1993 C   0  0  0  0  0  0
  -53.1855   -4.2395   17.3334 C   0  0  0  0  0  0
  -51.8386   -5.9716   18.2210 C   0  0  0  0  0  0
  -50.3950   -6.1793   18.5468 C   0  0  0  0  0  0
  -52.0019   -2.5239   16.1950 C   0  0  0  0  0  0
  -51.0176   -1.8209   16.8908 C   0  0  0  0  0  0
  -51.8170   -2.8397   14.8483 C   0  0  0  0  0  0
  -49.8469   -1.4349   16.2358 C   0  0  0  0  0  0
  -49.6649   -1.7520   14.8910 C   0  0  0  0  0  0
  -50.6479   -2.4553   14.1917 C   0  0  0  0  0  0
  -48.4224   -1.3313   14.2252 C   0  0  0  0  0  0
  -47.7407   -0.3561   16.3491 C   0  0  0  0  0  0
  -47.4516   -0.5949   15.0597 C   0  0  0  0  0  0
  -46.8132    0.3833   17.2286 C   0  0  0  0  0  0
  -52.0090   -0.3755   18.4990 C   0  0  0  0  0  0
  -47.3072    1.3153   18.1456 C   0  0  0  0  0  0
  -45.4371    0.1544   17.1488 C   0  0  0  0  0  0
  -46.4312    2.0126   18.9771 C   0  0  0  0  0  0
  -44.5609    0.8527   17.9805 C   0  0  0  0  0  0
  -45.0583    1.7818   18.8950 C   0  0  0  0  0  0
  -53.2242   -7.3947   14.9371 H   0  0  0  0  0  0
  -55.4747   -5.3560   15.3297 H   0  0  0  0  0  0
  -51.4987   -8.5151   18.1220 H   0  0  0  0  0  0
  -49.2423   -6.2142   20.1161 H   0  0  0  0  0  0
  -49.9774   -2.1308   12.4123 H   0  0  0  0  0  0
  1 15  1  0  0  0
  1 16  1  0  0  0
  2 15  1  0  0  0
  2 18  1  0  0  0
  3 12  1  0  0  0
  3 34  1  0  0  0
  4 13  1  0  0  0
  4 35  1  0  0  0
  5 14  1  0  0  0
  5 36  1  0  0  0
  6 17  1  0  0  0
  6 37  1  0  0  0
  7 17  2  0  0  0
  8 21  1  0  0  0
  8 25  1  0  0  0
  9 19  1  0  0  0
  9 28  1  0  0  0
 10 23  1  0  0  0
 10 38  1  0  0  0
 11 24  2  0  0  0
 12 13  1  0  0  0
 13 15  1  0  0  0
 14 12  1  0  0  0
 16 14  1  0  0  0
 16 17  1  0  0  0
 18 19  2  0  0  0
 18 20  1  0  0  0
 19 21  1  0  0  0
 20 23  2  0  0  0
 21 22  2  0  0  0
 22 23  1  0  0  0
 22 24  1  0  0  0
 24 26  1  0  0  0
 25 26  2  0  0  0
 25 27  1  0  0  0
 27 29  2  0  0  0
 27 30  1  0  0  0
 29 31  1  0  0  0
 30 32  2  0  0  0
 31 33  2  0  0  0
 32 33  1  0  0  0
M  END
>  <CHROM.0>
-62.95495993,-60.80674917,38.92250873

>  <CHROM.1>
28.96158674,-95.96645353,70.74677741,-58.68809671,177.23233173,-0.68528781
-81.02633074,149.79903711,103.83411267,-39.36083419,-50.31770995,-2.91552080
16.74915017,-2.74828214,-0.74290892,-0.98937499

>  <Name>
Wogonoside.pdb

>  <RI>
-8.77624e+08

>  <Rbt.Current_Directory>
/root/miniconda3/envs/rdock/share/rxdock-2013.1.1_148c5bd1-0/data/ligands/prepped_ligands/Wogonoside

>  <Rbt.Executable>
rbdock/0.1.0

>  <Rbt.Library>
librxdock.so/0.1.0

>  <Rbt.Parameter_File>
/root/miniconda3/envs/rdock/share/rxdock-2013.1.1_148c5bd1-0/data/scripts/dock.prm

>  <Rbt.Receptor>
def.prm

>  <SCORE>
-12.8452

>  <SCORE.INTER>
-15.7983

>  <SCORE.INTER.CONST>
1

>  <SCORE.INTER.POLAR>
-2.2393

>  <SCORE.INTER.REPUL>
0.811047

>  <SCORE.INTER.ROT>
5

>  <SCORE.INTER.VDW>
-22.6399

>  <SCORE.INTER.norm>
-0.478737

>  <SCORE.INTRA>
3.26856

>  <SCORE.INTRA.DIHEDRAL>
8.52451

>  <SCORE.INTRA.DIHEDRAL.0>
10.6366

>  <SCORE.INTRA.POLAR>
0

>  <SCORE.INTRA.POLAR.0>
0

>  <SCORE.INTRA.REPUL>
0

>  <SCORE.INTRA.REPUL.0>
0

>  <SCORE.INTRA.VDW>
-0.993691

>  <SCORE.INTRA.VDW.0>
-0.944467

>  <SCORE.INTRA.norm>
0.0990474

>  <SCORE.RESTR>
0.174268

>  <SCORE.RESTR.CAVITY>
0.174268

>  <SCORE.RESTR.norm>
0.00528086

>  <SCORE.SYSTEM>
-0.489732

>  <SCORE.SYSTEM.CONST>
0

>  <SCORE.SYSTEM.DIHEDRAL>
1.03027

>  <SCORE.SYSTEM.VDW>
-1.00486

>  <SCORE.SYSTEM.norm>
-0.0148404

>  <SCORE.heavy>
33

>  <SCORE.norm>
-0.389249

$$$$
Wogonoside.pdb
  RxDock  02242110113D
librxdock.so/0.1.0
 38 41  0  0  0  0  0  0  0  0999 V2000
  -51.3933   -4.9087   16.6476 O   0  0  0  0  0  0
  -49.6315   -3.3834   16.7538 O   0  0  0  0  0  0
  -49.4393   -7.5428   19.1208 O   0  0  0  0  0  0
  -47.9408   -5.4307   17.7191 O   0  0  0  0  0  0
  -51.6332   -8.4683   17.4523 O   0  0  0  0  0  0
  -53.7202   -5.1734   17.3041 O   0  0  0  0  0  0
  -54.0306   -6.9099   15.8609 O   0  0  0  0  0  0
  -45.5796   -1.6869   18.5806 O   0  0  0  0  0  0
  -48.1999   -2.3164   18.8694 O   0  0  0  0  0  0
  -45.7844   -3.2056   13.9823 O   0  0  0  0  0  0
  -43.5936   -2.2547   15.0690 O   0  0  0  0  0  0
  -49.7973   -6.9648   17.8644 C   0  0  0  0  0  0
  -49.3611   -5.4998   17.8348 C   0  0  0  0  0  0
  -51.3109   -7.1000   17.6955 C   0  0  0  0  0  0
  -49.9749   -4.7633   16.6432 C   0  0  0  0  0  0
  -51.7993   -6.2659   16.5179 C   0  0  0  0  0  0
  -53.2911   -6.1794   16.5050 C   0  0  0  0  0  0
  -48.3126   -3.0676   16.6045 C   0  0  0  0  0  0
  -47.5880   -2.5297   17.6688 C   0  0  0  0  0  0
  -47.6910   -3.2876   15.3745 C   0  0  0  0  0  0
  -46.2391   -2.2125   17.4995 C   0  0  0  0  0  0
  -45.6210   -2.4337   16.2702 C   0  0  0  0  0  0
  -46.3432   -2.9719   15.2031 C   0  0  0  0  0  0
  -44.1990   -2.0888   16.1193 C   0  0  0  0  0  0
  -44.2372   -1.3687   18.4445 C   0  0  0  0  0  0
  -43.5330   -1.5278   17.3122 C   0  0  0  0  0  0
  -43.6272   -0.8040   19.6650 C   0  0  0  0  0  0
  -49.0571   -1.1813   18.9658 C   0  0  0  0  0  0
  -42.5079    0.0277   19.5708 C   0  0  0  0  0  0
  -44.1665   -1.0979   20.9201 C   0  0  0  0  0  0
  -41.9327    0.5620   20.7235 C   0  0  0  0  0  0
  -43.5904   -0.5635   22.0732 C   0  0  0  0  0  0
  -42.4734    0.2668   21.9746 C   0  0  0  0  0  0
  -49.8838   -7.0325   19.8183 H   0  0  0  0  0  0
  -47.5606   -6.0116   18.3997 H   0  0  0  0  0  0
  -51.3678   -8.9839   18.2327 H   0  0  0  0  0  0
  -52.9737   -4.6703   17.6944 H   0  0  0  0  0  0
  -46.1354   -2.5876   13.3242 H   0  0  0  0  0  0
  1 15  1  0  0  0
  1 16  1  0  0  0
  2 15  1  0  0  0
  2 18  1  0  0  0
  3 12  1  0  0  0
  3 34  1  0  0  0
  4 13  1  0  0  0
  4 35  1  0  0  0
  5 14  1  0  0  0
  5 36  1  0  0  0
  6 17  1  0  0  0
  6 37  1  0  0  0
  7 17  2  0  0  0
  8 21  1  0  0  0
  8 25  1  0  0  0
  9 19  1  0  0  0
  9 28  1  0  0  0
 10 23  1  0  0  0
 10 38  1  0  0  0
 11 24  2  0  0  0
 12 13  1  0  0  0
 13 15  1  0  0  0
 14 12  1  0  0  0
 16 14  1  0  0  0
 16 17  1  0  0  0
 18 19  2  0  0  0
 18 20  1  0  0  0
 19 21  1  0  0  0
 20 23  2  0  0  0
 21 22  2  0  0  0
 22 23  1  0  0  0
 22 24  1  0  0  0
 24 26  1  0  0  0
 25 26  2  0  0  0
 25 27  1  0  0  0
 27 29  2  0  0  0
 27 30  1  0  0  0
 29 31  1  0  0  0
 30 32  2  0  0  0
 31 33  2  0  0  0
 32 33  1  0  0  0
M  END
>  <CHROM.0>
-70.33139302,-178.09369117,-61.61349663

>  <CHROM.1>
-172.47882372,-115.34148532,59.19233938,-50.19898456,62.59457338,-176.70282918
-76.53762990,69.76950316,-34.09484168,-154.74655469,-47.66951717,-3.52600673
17.68749212,-2.85220808,0.56560163,1.44306823

>  <Name>
Wogonoside.pdb

>  <RI>
-8.77624e+08

>  <Rbt.Current_Directory>
/root/miniconda3/envs/rdock/share/rxdock-2013.1.1_148c5bd1-0/data/ligands/prepped_ligands/Wogonoside

>  <Rbt.Executable>
rbdock/0.1.0

>  <Rbt.Library>
librxdock.so/0.1.0

>  <Rbt.Parameter_File>
/root/miniconda3/envs/rdock/share/rxdock-2013.1.1_148c5bd1-0/data/scripts/dock.prm

>  <Rbt.Receptor>
def.prm

>  <SCORE>
-12.716

>  <SCORE.INTER>
-14.888

>  <SCORE.INTER.CONST>
1

>  <SCORE.INTER.POLAR>
-1.66461

>  <SCORE.INTER.REPUL>
0.0400681

>  <SCORE.INTER.ROT>
5

>  <SCORE.INTER.VDW>
-19.8286

>  <SCORE.INTER.norm>
-0.45115

>  <SCORE.INTRA>
3.07315

>  <SCORE.INTRA.DIHEDRAL>
5.15287

>  <SCORE.INTRA.DIHEDRAL.0>
10.6366

>  <SCORE.INTRA.POLAR>
-0.20661

>  <SCORE.INTRA.POLAR.0>
0

>  <SCORE.INTRA.REPUL>
0

>  <SCORE.INTRA.REPUL.0>
0

>  <SCORE.INTRA.VDW>
1.19919

>  <SCORE.INTRA.VDW.0>
-0.944467

>  <SCORE.INTRA.norm>
0.0931257

>  <SCORE.RESTR>
0

>  <SCORE.RESTR.CAVITY>
0

>  <SCORE.RESTR.norm>
0

>  <SCORE.SYSTEM>
-0.901235

>  <SCORE.SYSTEM.CONST>
0

>  <SCORE.SYSTEM.DIHEDRAL>
0.290114

>  <SCORE.SYSTEM.VDW>
-1.04629

>  <SCORE.SYSTEM.norm>
-0.0273102

>  <SCORE.heavy>
33

>  <SCORE.norm>
-0.385334

$$$$
Wogonoside.pdb
  RxDock  02242110113D
librxdock.so/0.1.0
 38 41  0  0  0  0  0  0  0  0999 V2000
  -51.0122   -5.6809   18.6258 O   0  0  0  0  0  0
  -51.4345   -3.4088   18.3075 O   0  0  0  0  0  0
  -53.4514   -6.7117   15.4856 O   0  0  0  0  0  0
  -53.7008   -4.0660   16.7540 O   0  0  0  0  0  0
  -52.7329   -8.6989   17.4826 O   0  0  0  0  0  0
  -49.5880   -7.2047   19.9734 O   0  0  0  0  0  0
  -50.0822   -8.9251   18.5626 O   0  0  0  0  0  0
  -46.8246   -2.2379   18.2012 O   0  0  0  0  0  0
  -49.1427   -2.5157   19.5778 O   0  0  0  0  0  0
  -49.0898   -3.7662   14.1980 O   0  0  0  0  0  0
  -46.5525   -3.0987   14.2285 O   0  0  0  0  0  0
  -53.1485   -6.4127   16.8493 C   0  0  0  0  0  0
  -52.6238   -4.9803   16.9523 C   0  0  0  0  0  0
  -52.1100   -7.4238   17.3360 C   0  0  0  0  0  0
  -52.0149   -4.7115   18.3293 C   0  0  0  0  0  0
  -51.5360   -7.0023   18.6828 C   0  0  0  0  0  0
  -50.3442   -7.8301   19.0398 C   0  0  0  0  0  0
  -50.2694   -3.2701   17.6111 C   0  0  0  0  0  0
  -49.1124   -2.8202   18.2482 C   0  0  0  0  0  0
  -50.2434   -3.5829   16.2513 C   0  0  0  0  0  0
  -47.9284   -2.6843   17.5213 C   0  0  0  0  0  0
  -47.9054   -2.9978   16.1636 C   0  0  0  0  0  0
  -49.0615   -3.4482   15.5229 C   0  0  0  0  0  0
  -46.6446   -2.8437   15.4216 C   0  0  0  0  0  0
  -45.6326   -2.0997   17.5070 C   0  0  0  0  0  0
  -45.4846   -2.3619   16.1984 C   0  0  0  0  0  0
  -44.5112   -1.6067   18.3317 C   0  0  0  0  0  0
  -49.2570   -1.1373   19.9232 C   0  0  0  0  0  0
  -43.2118   -1.5973   17.8170 C   0  0  0  0  0  0
  -44.7439   -1.1465   19.6303 C   0  0  0  0  0  0
  -42.1530   -1.1304   18.5955 C   0  0  0  0  0  0
  -43.6842   -0.6799   20.4091 C   0  0  0  0  0  0
  -42.3885   -0.6717   19.8912 C   0  0  0  0  0  0
  -52.6093   -6.8223   15.0131 H   0  0  0  0  0  0
  -53.3295   -3.1675   16.7565 H   0  0  0  0  0  0
  -52.8563   -9.0780   16.5959 H   0  0  0  0  0  0
  -49.8933   -6.2871   20.1391 H   0  0  0  0  0  0
  -49.9199   -4.2119   13.9734 H   0  0  0  0  0  0
  1 15  1  0  0  0
  1 16  1  0  0  0
  2 15  1  0  0  0
  2 18  1  0  0  0
  3 12  1  0  0  0
  3 34  1  0  0  0
  4 13  1  0  0  0
  4 35  1  0  0  0
  5 14  1  0  0  0
  5 36  1  0  0  0
  6 17  1  0  0  0
  6 37  1  0  0  0
  7 17  2  0  0  0
  8 21  1  0  0  0
  8 25  1  0  0  0
  9 19  1  0  0  0
  9 28  1  0  0  0
 10 23  1  0  0  0
 10 38  1  0  0  0
 11 24  2  0  0  0
 12 13  1  0  0  0
 13 15  1  0  0  0
 14 12  1  0  0  0
 16 14  1  0  0  0
 16 17  1  0  0  0
 18 19  2  0  0  0
 18 20  1  0  0  0
 19 21  1  0  0  0
 20 23  2  0  0  0
 21 22  2  0  0  0
 22 23  1  0  0  0
 22 24  1  0  0  0
 24 26  1  0  0  0
 25 26  2  0  0  0
 25 27  1  0  0  0
 27 29  2  0  0  0
 27 30  1  0  0  0
 29 31  1  0  0  0
 30 32  2  0  0  0
 31 33  2  0  0  0
 32 33  1  0  0  0
M  END
>  <CHROM.0>
-57.54932120,-60.32363976,176.94242701

>  <CHROM.1>
46.73725583,-121.06491221,73.22541983,-175.73602302,75.81404445,172.13855996
-99.66741871,-10.70775173,40.83637273,170.99685306,-48.88131076,-4.01037015
17.67047446,-2.99272688,-0.57442918,-1.12301140

>  <Name>
Wogonoside.pdb

>  <RI>
-8.77624e+08

>  <Rbt.Current_Directory>
/root/miniconda3/envs/rdock/share/rxdock-2013.1.1_148c5bd1-0/data/ligands/prepped_ligands/Wogonoside

>  <Rbt.Executable>
rbdock/0.1.0

>  <Rbt.Library>
librxdock.so/0.1.0

>  <Rbt.Parameter_File>
/root/miniconda3/envs/rdock/share/rxdock-2013.1.1_148c5bd1-0/data/scripts/dock.prm

>  <Rbt.Receptor>
def.prm

>  <SCORE>
-11.2335

>  <SCORE.INTER>
-13.2995

>  <SCORE.INTER.CONST>
1

>  <SCORE.INTER.POLAR>
-1.25696

>  <SCORE.INTER.REPUL>
0.183725

>  <SCORE.INTER.ROT>
5

>  <SCORE.INTER.VDW>
-20.3445

>  <SCORE.INTER.norm>
-0.403017

>  <SCORE.INTRA>
3.13992

>  <SCORE.INTRA.DIHEDRAL>
2.42905

>  <SCORE.INTRA.DIHEDRAL.0>
10.6366

>  <SCORE.INTRA.POLAR>
-0.19138

>  <SCORE.INTRA.POLAR.0>
0

>  <SCORE.INTRA.REPUL>
0

>  <SCORE.INTRA.REPUL.0>
0

>  <SCORE.INTRA.VDW>
2.57608

>  <SCORE.INTRA.VDW.0>
-0.944467

>  <SCORE.INTRA.norm>
0.095149

>  <SCORE.RESTR>
0

>  <SCORE.RESTR.CAVITY>
0

>  <SCORE.RESTR.norm>
0

>  <SCORE.SYSTEM>
-1.07387

>  <SCORE.SYSTEM.CONST>
0

>  <SCORE.SYSTEM.DIHEDRAL>
0.0392088

>  <SCORE.SYSTEM.VDW>
-1.09348

>  <SCORE.SYSTEM.norm>
-0.0325416

>  <SCORE.heavy>
33

>  <SCORE.norm>
-0.340409

$$$$
Wogonoside.pdb
  RxDock  02242110113D
librxdock.so/0.1.0
 38 41  0  0  0  0  0  0  0  0999 V2000
  -45.9429   -0.4629   18.3485 O   0  0  0  0  0  0
  -45.2034   -2.0044   16.7614 O   0  0  0  0  0  0
  -42.3838   -0.6551   20.3903 O   0  0  0  0  0  0
  -43.1419   -2.8007   18.5214 O   0  0  0  0  0  0
  -44.7571    0.3962   21.6999 O   0  0  0  0  0  0
  -46.0850    2.2031   19.2647 O   0  0  0  0  0  0
  -48.0069    1.2389   20.0206 O   0  0  0  0  0  0
  -49.8204   -2.8385   15.9735 O   0  0  0  0  0  0
  -47.5525   -3.3359   17.3717 O   0  0  0  0  0  0
  -47.3869    0.3812   13.2895 O   0  0  0  0  0  0
  -49.9318   -0.1414   12.9221 O   0  0  0  0  0  0
  -43.7207   -1.0466   20.0737 C   0  0  0  0  0  0
  -43.7804   -1.5291   18.6241 C   0  0  0  0  0  0
  -44.6327    0.1597   20.2985 C   0  0  0  0  0  0
  -45.2267   -1.6798   18.1501 C   0  0  0  0  0  0
  -46.0190   -0.0966   19.7210 C   0  0  0  0  0  0
  -46.8301    1.1583   19.6981 C   0  0  0  0  0  0
  -46.3430   -1.7514   16.0551 C   0  0  0  0  0  0
  -47.5288   -2.4207   16.3601 C   0  0  0  0  0  0
  -46.3139   -0.8144   15.0214 C   0  0  0  0  0  0
  -48.6862   -2.1498   15.6281 C   0  0  0  0  0  0
  -48.6541   -1.2133   14.5966 C   0  0  0  0  0  0
  -47.4691   -0.5417   14.2888 C   0  0  0  0  0  0
  -49.8879   -0.9486   13.8405 C   0  0  0  0  0  0
  -50.9870   -2.5854   15.2688 C   0  0  0  0  0  0
  -51.0824   -1.7138   14.2516 C   0  0  0  0  0  0
  -52.1448   -3.3849   15.7171 C   0  0  0  0  0  0
  -47.9350   -4.6664   17.0313 C   0  0  0  0  0  0
  -52.4071   -3.5376   17.0814 C   0  0  0  0  0  0
  -52.9842   -3.9921   14.7795 C   0  0  0  0  0  0
  -53.5013   -4.2916   17.5046 C   0  0  0  0  0  0
  -54.0786   -4.7469   15.2033 C   0  0  0  0  0  0
  -54.3371   -4.8964   16.5663 C   0  0  0  0  0  0
  -42.3634   -0.4054   21.3293 H   0  0  0  0  0  0
  -42.1986   -2.6440   18.3461 H   0  0  0  0  0  0
  -43.8905    0.6814   22.0357 H   0  0  0  0  0  0
  -46.5768    3.0507   19.3143 H   0  0  0  0  0  0
  -48.0337    0.1881   12.5948 H   0  0  0  0  0  0
  1 15  1  0  0  0
  1 16  1  0  0  0
  2 15  1  0  0  0
  2 18  1  0  0  0
  3 12  1  0  0  0
  3 34  1  0  0  0
  4 13  1  0  0  0
  4 35  1  0  0  0
  5 14  1  0  0  0
  5 36  1  0  0  0
  6 17  1  0  0  0
  6 37  1  0  0  0
  7 17  2  0  0  0
  8 21  1  0  0  0
  8 25  1  0  0  0
  9 19  1  0  0  0
  9 28  1  0  0  0
 10 23  1  0  0  0
 10 38  1  0  0  0
 11 24  2  0  0  0
 12 13  1  0  0  0
 13 15  1  0  0  0
 14 12  1  0  0  0
 16 14  1  0  0  0
 16 17  1  0  0  0
 18 19  2  0  0  0
 18 20  1  0  0  0
 19 21  1  0  0  0
 20 23  2  0  0  0
 21 22  2  0  0  0
 22 23  1  0  0  0
 22 24  1  0  0  0
 24 26  1  0  0  0
 25 26  2  0  0  0
 25 27  1  0  0  0
 27 29  2  0  0  0
 27 30  1  0  0  0
 29 31  1  0  0  0
 30 32  2  0  0  0
 31 33  2  0  0  0
 32 33  1  0  0  0
M  END
>  <CHROM.0>
74.39075039,66.09519959,-50.61787688

>  <CHROM.1>
-38.63691003,-63.38490013,-176.60600612,-88.81563135,66.99574914,5.05592124
-120.95090661,151.39574004,-75.93603545,44.57213919,-47.85473909,-1.58716990
17.07413994,0.37515971,0.47914499,1.84165331

>  <Name>
Wogonoside.pdb

>  <RI>
-8.77624e+08

>  <Rbt.Current_Directory>
/root/miniconda3/envs/rdock/share/rxdock-2013.1.1_148c5bd1-0/data/ligands/prepped_ligands/Wogonoside

>  <Rbt.Executable>
rbdock/0.1.0

>  <Rbt.Library>
librxdock.so/0.1.0

>  <Rbt.Parameter_File>
/root/miniconda3/envs/rdock/share/rxdock-2013.1.1_148c5bd1-0/data/scripts/dock.prm

>  <Rbt.Receptor>
def.prm

>  <SCORE>
-15.4147

>  <SCORE.INTER>
-18.7047

>  <SCORE.INTER.CONST>
1

>  <SCORE.INTER.POLAR>
-1.75042

>  <SCORE.INTER.REPUL>
0.0709735

>  <SCORE.INTER.ROT>
5

>  <SCORE.INTER.VDW>
-23.5081

>  <SCORE.INTER.norm>
-0.566809

>  <SCORE.INTRA>
3.81445

>  <SCORE.INTRA.DIHEDRAL>
7.12331

>  <SCORE.INTRA.DIHEDRAL.0>
10.6366

>  <SCORE.INTRA.POLAR>
0

>  <SCORE.INTRA.POLAR.0>
0

>  <SCORE.INTRA.REPUL>
0

>  <SCORE.INTRA.REPUL.0>
0

>  <SCORE.INTRA.VDW>
0.252791

>  <SCORE.INTRA.VDW.0>
-0.944467

>  <SCORE.INTRA.norm>
0.115589

>  <SCORE.RESTR>
0.00175322

>  <SCORE.RESTR.CAVITY>
0.00175322

>  <SCORE.RESTR.norm>
5.31278e-05

>  <SCORE.SYSTEM>
-0.526159

>  <SCORE.SYSTEM.CONST>
0

>  <SCORE.SYSTEM.DIHEDRAL>
0.86506

>  <SCORE.SYSTEM.POLAR>
-0.017143

>  <SCORE.SYSTEM.VDW>
-0.900402

>  <SCORE.SYSTEM.norm>
-0.0159442

>  <SCORE.heavy>
33

>  <SCORE.norm>
-0.467111

$$$$
Wogonoside.pdb
  RxDock  02242110113D
librxdock.so/0.1.0
 38 41  0  0  0  0  0  0  0  0999 V2000
  -49.6528   -4.9214   16.0587 O   0  0  0  0  0  0
  -49.5040   -2.8436   15.0086 O   0  0  0  0  0  0
  -53.6650   -5.2056   15.2252 O   0  0  0  0  0  0
  -52.3142   -2.5901   15.1515 O   0  0  0  0  0  0
  -52.4902   -6.8640   17.3043 O   0  0  0  0  0  0
  -50.2364   -8.0514   17.4819 O   0  0  0  0  0  0
  -48.3445   -7.0458   16.7046 O   0  0  0  0  0  0
  -46.2988   -1.6755   18.3245 O   0  0  0  0  0  0
  -48.8788   -2.0615   17.5895 O   0  0  0  0  0  0
  -44.9061   -2.8664   13.8373 O   0  0  0  0  0  0
  -43.2072   -2.2078   15.7252 O   0  0  0  0  0  0
  -52.5243   -4.8380   16.0026 C   0  0  0  0  0  0
  -51.6612   -3.8572   15.2083 C   0  0  0  0  0  0
  -51.7519   -6.1131   16.3418 C   0  0  0  0  0  0
  -50.2950   -3.6627   15.8676 C   0  0  0  0  0  0
  -50.3859   -5.7775   16.9267 C   0  0  0  0  0  0
  -49.5264   -6.9968   17.0144 C   0  0  0  0  0  0
  -48.2040   -2.6501   15.3748 C   0  0  0  0  0  0
  -47.8853   -2.2560   16.6749 C   0  0  0  0  0  0
  -47.1913   -2.8503   14.4357 C   0  0  0  0  0  0
  -46.5501   -2.0628   17.0335 C   0  0  0  0  0  0
  -45.5409   -2.2638   16.0936 C   0  0  0  0  0  0
  -45.8564   -2.6583   14.7917 C   0  0  0  0  0  0
  -44.1426   -2.0515   16.4982 C   0  0  0  0  0  0
  -44.9817   -1.4828   18.7117 C   0  0  0  0  0  0
  -43.9240   -1.6369   17.8988 C   0  0  0  0  0  0
  -44.8248   -1.0609   20.1181 C   0  0  0  0  0  0
  -49.0246   -3.0504   18.6060 C   0  0  0  0  0  0
  -43.5826   -1.1687   20.7495 C   0  0  0  0  0  0
  -45.9174   -0.5513   20.8243 C   0  0  0  0  0  0
  -43.4343   -0.7690   22.0774 C   0  0  0  0  0  0
  -45.7688   -0.1520   22.1531 C   0  0  0  0  0  0
  -44.5267   -0.2608   22.7795 C   0  0  0  0  0  0
  -53.3446   -5.6428   14.4186 H   0  0  0  0  0  0
  -52.4538   -2.2888   16.0653 H   0  0  0  0  0  0
  -51.9479   -7.6247   17.5738 H   0  0  0  0  0  0
  -49.6988   -8.8716   17.5126 H   0  0  0  0  0  0
  -44.0230   -2.8819   14.2350 H   0  0  0  0  0  0
  1 15  1  0  0  0
  1 16  1  0  0  0
  2 15  1  0  0  0
  2 18  1  0  0  0
  3 12  1  0  0  0
  3 34  1  0  0  0
  4 13  1  0  0  0
  4 35  1  0  0  0
  5 14  1  0  0  0
  5 36  1  0  0  0
  6 17  1  0  0  0
  6 37  1  0  0  0
  7 17  2  0  0  0
  8 21  1  0  0  0
  8 25  1  0  0  0
  9 19  1  0  0  0
  9 28  1  0  0  0
 10 23  1  0  0  0
 10 38  1  0  0  0
 11 24  2  0  0  0
 12 13  1  0  0  0
 13 15  1  0  0  0
 14 12  1  0  0  0
 16 14  1  0  0  0
 16 17  1  0  0  0
 18 19  2  0  0  0
 18 20  1  0  0  0
 19 21  1  0  0  0
 20 23  2  0  0  0
 21 22  2  0  0  0
 22 23  1  0  0  0
 22 24  1  0  0  0
 24 26  1  0  0  0
 25 26  2  0  0  0
 25 27  1  0  0  0
 27 29  2  0  0  0
 27 30  1  0  0  0
 29 31  1  0  0  0
 30 32  2  0  0  0
 31 33  2  0  0  0
 32 33  1  0  0  0
M  END
>  <CHROM.0>
-176.01985581,-60.63741020,-60.28161434

>  <CHROM.1>
-54.27238516,-49.53957307,61.39165011,58.37223607,-174.53097890,-2.08798593
106.45828918,-168.47686150,-162.43200032,163.05312293,-47.93776481,-3.27684554
17.21284077,-2.66108845,0.49155365,1.42071848

>  <Name>
Wogonoside.pdb

>  <RI>
-8.77624e+08

>  <Rbt.Current_Directory>
/root/miniconda3/envs/rdock/share/rxdock-2013.1.1_148c5bd1-0/data/ligands/prepped_ligands/Wogonoside

>  <Rbt.Executable>
rbdock/0.1.0

>  <Rbt.Library>
librxdock.so/0.1.0

>  <Rbt.Parameter_File>
/root/miniconda3/envs/rdock/share/rxdock-2013.1.1_148c5bd1-0/data/scripts/dock.prm

>  <Rbt.Receptor>
def.prm

>  <SCORE>
-13.1914

>  <SCORE.INTER>
-11.0384

>  <SCORE.INTER.CONST>
1

>  <SCORE.INTER.POLAR>
-0.342678

>  <SCORE.INTER.REPUL>
0

>  <SCORE.INTER.ROT>
5

>  <SCORE.INTER.VDW>
-20.2733

>  <SCORE.INTER.norm>
-0.334497

>  <SCORE.INTRA>
-1.29288

>  <SCORE.INTRA.DIHEDRAL>
-1.35749

>  <SCORE.INTRA.DIHEDRAL.0>
10.6366

>  <SCORE.INTRA.POLAR>
-0.712942

>  <SCORE.INTRA.POLAR.0>
0

>  <SCORE.INTRA.REPUL>
0

>  <SCORE.INTRA.REPUL.0>
0

>  <SCORE.INTRA.VDW>
1.80987

>  <SCORE.INTRA.VDW.0>
-0.944467

>  <SCORE.INTRA.norm>
-0.0391782

>  <SCORE.RESTR>
0.179476

>  <SCORE.RESTR.CAVITY>
0.179476

>  <SCORE.RESTR.norm>
0.00543867

>  <SCORE.SYSTEM>
-1.03963

>  <SCORE.SYSTEM.CONST>
0

>  <SCORE.SYSTEM.DIHEDRAL>
0.0386548

>  <SCORE.SYSTEM.POLAR>
-4.99518e-05

>  <SCORE.SYSTEM.VDW>
-1.05878

>  <SCORE.SYSTEM.norm>
-0.0315038

>  <SCORE.heavy>
33

>  <SCORE.norm>
-0.39974

$$$$
Wogonoside.pdb
  RxDock  02242110113D
librxdock.so/0.1.0
 38 41  0  0  0  0  0  0  0  0999 V2000
  -51.5479   -5.4118   18.2847 O   0  0  0  0  0  0
  -51.9495   -3.2000   17.6612 O   0  0  0  0  0  0
  -53.5469   -6.8436   14.9943 O   0  0  0  0  0  0
  -53.9875   -4.0814   15.9143 O   0  0  0  0  0  0
  -53.0729   -8.5798   17.2778 O   0  0  0  0  0  0
  -51.2719   -8.7640   19.2880 O   0  0  0  0  0  0
  -49.8067   -7.0190   19.2369 O   0  0  0  0  0  0
  -47.3233   -2.1329   17.9651 O   0  0  0  0  0  0
  -49.7671   -2.3234   19.1215 O   0  0  0  0  0  0
  -49.2363   -3.7178   13.8033 O   0  0  0  0  0  0
  -46.6979   -3.1050   14.0585 O   0  0  0  0  0  0
  -53.4271   -6.3886   16.3431 C   0  0  0  0  0  0
  -52.9357   -4.9408   16.3505 C   0  0  0  0  0  0
  -52.4499   -7.3134   17.0695 C   0  0  0  0  0  0
  -52.5139   -4.5066   17.7550 C   0  0  0  0  0  0
  -52.0604   -6.7316   18.4226 C   0  0  0  0  0  0
  -50.9164   -7.4848   19.0201 C   0  0  0  0  0  0
  -50.7208   -3.1053   17.0755 C   0  0  0  0  0  0
  -49.6186   -2.6639   17.8086 C   0  0  0  0  0  0
  -50.5740   -3.4547   15.7324 C   0  0  0  0  0  0
  -48.3683   -2.5732   17.1944 C   0  0  0  0  0  0
  -48.2247   -2.9231   15.8531 C   0  0  0  0  0  0
  -49.3256   -3.3653   15.1166 C   0  0  0  0  0  0
  -46.8961   -2.8164   15.2308 C   0  0  0  0  0  0
  -46.0680   -2.0392   17.3842 C   0  0  0  0  0  0
  -45.8033   -2.3394   16.1024 C   0  0  0  0  0  0
  -45.0180   -1.5489   18.2994 C   0  0  0  0  0  0
  -49.7809   -3.3891   20.0683 C   0  0  0  0  0  0
  -45.2481   -0.4216   19.0930 C   0  0  0  0  0  0
  -43.7894   -2.2098   18.3770 C   0  0  0  0  0  0
  -44.2569    0.0407   19.9583 C   0  0  0  0  0  0
  -42.7976   -1.7467   19.2424 C   0  0  0  0  0  0
  -43.0317   -0.6213   20.0334 C   0  0  0  0  0  0
  -53.8901   -7.7526   15.0184 H   0  0  0  0  0  0
  -54.1878   -4.3058   14.9898 H   0  0  0  0  0  0
  -53.0870   -9.0524   16.4283 H   0  0  0  0  0  0
  -50.5479   -9.2631   19.7233 H   0  0  0  0  0  0
  -48.3370   -4.0074   13.5897 H   0  0  0  0  0  0
  1 15  1  0  0  0
  1 16  1  0  0  0
  2 15  1  0  0  0
  2 18  1  0  0  0
  3 12  1  0  0  0
  3 34  1  0  0  0
  4 13  1  0  0  0
  4 35  1  0  0  0
  5 14  1  0  0  0
  5 36  1  0  0  0
  6 17  1  0  0  0
  6 37  1  0  0  0
  7 17  2  0  0  0
  8 21  1  0  0  0
  8 25  1  0  0  0
  9 19  1  0  0  0
  9 28  1  0  0  0
 10 23  1  0  0  0
 10 38  1  0  0  0
 11 24  2  0  0  0
 12 13  1  0  0  0
 13 15  1  0  0  0
 14 12  1  0  0  0
 16 14  1  0  0  0
 16 17  1  0  0  0
 18 19  2  0  0  0
 18 20  1  0  0  0
 19 21  1  0  0  0
 20 23  2  0  0  0
 21 22  2  0  0  0
 22 23  1  0  0  0
 22 24  1  0  0  0
 24 26  1  0  0  0
 25 26  2  0  0  0
 25 27  1  0  0  0
 27 29  2  0  0  0
 27 30  1  0  0  0
 29 31  1  0  0  0
 30 32  2  0  0  0
 31 33  2  0  0  0
 32 33  1  0  0  0
M  END
>  <CHROM.0>
-57.37802368,-62.34139162,-58.40473931

>  <CHROM.1>
48.45968642,-116.21813343,-178.01129852,-64.26769241,75.03898031,3.12269684
80.96118348,-154.17084595,176.54432254,-47.17486255,-49.31584681,-3.99658361
17.40564155,-3.01663650,-0.58088974,-1.11429777

>  <Name>
Wogonoside.pdb

>  <RI>
-8.77624e+08

>  <Rbt.Current_Directory>
/root/miniconda3/envs/rdock/share/rxdock-2013.1.1_148c5bd1-0/data/ligands/prepped_ligands/Wogonoside

>  <Rbt.Executable>
rbdock/0.1.0

>  <Rbt.Library>
librxdock.so/0.1.0

>  <Rbt.Parameter_File>
/root/miniconda3/envs/rdock/share/rxdock-2013.1.1_148c5bd1-0/data/scripts/dock.prm

>  <Rbt.Receptor>
def.prm

>  <SCORE>
-13.305

>  <SCORE.INTER>
-13.9513

>  <SCORE.INTER.CONST>
1

>  <SCORE.INTER.POLAR>
-1.51123

>  <SCORE.INTER.REPUL>
0.192364

>  <SCORE.INTER.ROT>
5

>  <SCORE.INTER.VDW>
-20.175

>  <SCORE.INTER.norm>
-0.422768

>  <SCORE.INTRA>
1.71615

>  <SCORE.INTRA.DIHEDRAL>
4.14188

>  <SCORE.INTRA.DIHEDRAL.0>
10.6366

>  <SCORE.INTRA.POLAR>
0

>  <SCORE.INTRA.POLAR.0>
0

>  <SCORE.INTRA.REPUL>
0

>  <SCORE.INTRA.REPUL.0>
0

>  <SCORE.INTRA.VDW>
-0.354787

>  <SCORE.INTRA.VDW.0>
-0.944467

>  <SCORE.INTRA.norm>
0.0520046

>  <SCORE.RESTR>
0

>  <SCORE.RESTR.CAVITY>
0

>  <SCORE.RESTR.norm>
0

>  <SCORE.SYSTEM>
-1.06983

>  <SCORE.SYSTEM.CONST>
0

>  <SCORE.SYSTEM.DIHEDRAL>
0.0471993

>  <SCORE.SYSTEM.POLAR>
-0.00468603

>  <SCORE.SYSTEM.VDW>
-1.0775

>  <SCORE.SYSTEM.norm>
-0.032419

>  <SCORE.heavy>
33

>  <SCORE.norm>
-0.403182

$$$$
Wogonoside.pdb
  RxDock  02242110113D
librxdock.so/0.1.0
 38 41  0  0  0  0  0  0  0  0999 V2000
  -49.3158   -5.6293   17.3150 O   0  0  0  0  0  0
  -50.0033   -3.5726   16.4553 O   0  0  0  0  0  0
  -53.0909   -7.2028   16.9328 O   0  0  0  0  0  0
  -52.6922   -4.2854   16.9487 O   0  0  0  0  0  0
  -51.1574   -8.4719   18.6948 O   0  0  0  0  0  0
  -47.2633   -6.8302   17.9890 O   0  0  0  0  0  0
  -48.3943   -8.8087   18.0082 O   0  0  0  0  0  0
  -46.1709   -1.8398   18.6785 O   0  0  0  0  0  0
  -48.7844   -2.5562   18.7235 O   0  0  0  0  0  0
  -45.9505   -3.1659   14.0218 O   0  0  0  0  0  0
  -43.8876   -2.1996   15.3237 O   0  0  0  0  0  0
  -52.0346   -6.5127   17.6028 C   0  0  0  0  0  0
  -51.6604   -5.2606   16.8091 C   0  0  0  0  0  0
  -50.8487   -7.4695   17.7277 C   0  0  0  0  0  0
  -50.3537   -4.6516   17.3197 C   0  0  0  0  0  0
  -49.5987   -6.7241   18.1781 C   0  0  0  0  0  0
  -48.3852   -7.5867   18.0495 C   0  0  0  0  0  0
  -48.6875   -3.2129   16.4287 C   0  0  0  0  0  0
  -48.0699   -2.7003   17.5701 C   0  0  0  0  0  0
  -47.9608   -3.3622   15.2466 C   0  0  0  0  0  0
  -46.7226   -2.3375   17.5262 C   0  0  0  0  0  0
  -45.9994   -2.4881   16.3445 C   0  0  0  0  0  0
  -46.6144   -3.0008   15.2004 C   0  0  0  0  0  0
  -44.5817   -2.0963   16.3260 C   0  0  0  0  0  0
  -44.8328   -1.4776   18.6671 C   0  0  0  0  0  0
  -44.0338   -1.5678   17.5917 C   0  0  0  0  0  0
  -44.3430   -0.9482   19.9558 C   0  0  0  0  0  0
  -49.7084   -1.4721   18.7807 C   0  0  0  0  0  0
  -45.1645   -0.9802   21.0861 C   0  0  0  0  0  0
  -43.0558   -0.4133   20.0515 C   0  0  0  0  0  0
  -44.7014   -0.4815   22.3034 C   0  0  0  0  0  0
  -42.5930    0.0861   21.2695 C   0  0  0  0  0  0
  -43.4161    0.0517   22.3956 C   0  0  0  0  0  0
  -52.7724   -7.4413   16.0461 H   0  0  0  0  0  0
  -52.8171   -4.1217   17.8989 H   0  0  0  0  0  0
  -50.4274   -9.1138   18.7074 H   0  0  0  0  0  0
  -47.4668   -5.8704   17.9885 H   0  0  0  0  0  0
  -46.1178   -2.4175   13.4300 H   0  0  0  0  0  0
  1 15  1  0  0  0
  1 16  1  0  0  0
  2 15  1  0  0  0
  2 18  1  0  0  0
  3 12  1  0  0  0
  3 34  1  0  0  0
  4 13  1  0  0  0
  4 35  1  0  0  0
  5 14  1  0  0  0
  5 36  1  0  0  0
  6 17  1  0  0  0
  6 37  1  0  0  0
  7 17  2  0  0  0
  8 21  1  0  0  0
  8 25  1  0  0  0
  9 19  1  0  0  0
  9 28  1  0  0  0
 10 23  1  0  0  0
 10 38  1  0  0  0
 11 24  2  0  0  0
 12 13  1  0  0  0
 13 15  1  0  0  0
 14 12  1  0  0  0
 16 14  1  0  0  0
 16 17  1  0  0  0
 18 19  2  0  0  0
 18 20  1  0  0  0
 19 21  1  0  0  0
 20 23  2  0  0  0
 21 22  2  0  0  0
 22 23  1  0  0  0
 22 24  1  0  0  0
 24 26  1  0  0  0
 25 26  2  0  0  0
 25 27  1  0  0  0
 27 29  2  0  0  0
 27 30  1  0  0  0
 29 31  1  0  0  0
 30 32  2  0  0  0
 31 33  2  0  0  0
 32 33  1  0  0  0
M  END
>  <CHROM.0>
48.52909351,67.50046641,57.57443313

>  <CHROM.1>
-36.90968111,-64.07736879,59.62469978,56.06650243,175.23988485,176.91435553
-74.93085859,82.34680406,39.39161028,6.78763411,-47.72132781,-3.73634131
17.87567254,2.86847105,-0.68658429,-1.63170002

>  <Name>
Wogonoside.pdb

>  <RI>
-8.77624e+08

>  <Rbt.Current_Directory>
/root/miniconda3/envs/rdock/share/rxdock-2013.1.1_148c5bd1-0/data/ligands/prepped_ligands/Wogonoside

>  <Rbt.Executable>
rbdock/0.1.0

>  <Rbt.Library>
librxdock.so/0.1.0

>  <Rbt.Parameter_File>
/root/miniconda3/envs/rdock/share/rxdock-2013.1.1_148c5bd1-0/data/scripts/dock.prm

>  <Rbt.Receptor>
def.prm

>  <SCORE>
-13.5387

>  <SCORE.INTER>
-16.552

>  <SCORE.INTER.CONST>
1

>  <SCORE.INTER.POLAR>
-2.21015

>  <SCORE.INTER.REPUL>
0.000829292

>  <SCORE.INTER.ROT>
5

>  <SCORE.INTER.VDW>
-19.4416

>  <SCORE.INTER.norm>
-0.501575

>  <SCORE.INTRA>
3.76107

>  <SCORE.INTRA.DIHEDRAL>
6.35736

>  <SCORE.INTRA.DIHEDRAL.0>
10.6366

>  <SCORE.INTRA.POLAR>
-0.164342

>  <SCORE.INTRA.POLAR.0>
0

>  <SCORE.INTRA.REPUL>
0

>  <SCORE.INTRA.REPUL.0>
0

>  <SCORE.INTRA.VDW>
1.14115

>  <SCORE.INTRA.VDW.0>
-0.944467

>  <SCORE.INTRA.norm>
0.113972

>  <SCORE.RESTR>
0.000450679

>  <SCORE.RESTR.CAVITY>
0.000450679

>  <SCORE.RESTR.norm>
1.36569e-05

>  <SCORE.SYSTEM>
-0.748225

>  <SCORE.SYSTEM.CONST>
0

>  <SCORE.SYSTEM.DIHEDRAL>
0.613722

>  <SCORE.SYSTEM.VDW>
-1.05509

>  <SCORE.SYSTEM.norm>
-0.0226735

>  <SCORE.heavy>
33

>  <SCORE.norm>
-0.410263

$$$$
