Wogonoside.pdb
  RxDock  02242101433D
librxdock.so/0.1.0
 38 41  0  0  0  0  0  0  0  0999 V2000
  -45.7884    0.4580   17.7025 O   0  0  0  0  0  0
  -45.1210   -1.0094   16.0164 O   0  0  0  0  0  0
  -42.1477    0.1668   19.5823 O   0  0  0  0  0  0
  -42.9904   -1.8890   17.6499 O   0  0  0  0  0  0
  -44.4608    1.1597   21.0373 O   0  0  0  0  0  0
  -46.5988    2.5275   20.4157 O   0  0  0  0  0  0
  -47.2050    2.5224   18.2187 O   0  0  0  0  0  0
  -49.5868   -2.6366   15.8138 O   0  0  0  0  0  0
  -47.1415   -2.6366   16.9825 O   0  0  0  0  0  0
  -48.0043    0.6706   12.6434 O   0  0  0  0  0  0
  -50.4488   -0.2819   12.6027 O   0  0  0  0  0  0
  -43.4979   -0.2078   19.3043 C   0  0  0  0  0  0
  -43.6198   -0.6227   17.8378 C   0  0  0  0  0  0
  -44.3959    0.9881   19.6225 C   0  0  0  0  0  0
  -45.0851   -0.7493   17.4183 C   0  0  0  0  0  0
  -45.8059    0.7606   19.0924 C   0  0  0  0  0  0
  -46.6131    2.0163   19.1614 C   0  0  0  0  0  0
  -46.3506   -1.0067   15.4252 C   0  0  0  0  0  0
  -47.3714   -1.8256   15.9096 C   0  0  0  0  0  0
  -46.5809   -0.1755   14.3282 C   0  0  0  0  0  0
  -48.6240   -1.8105   15.2936 C   0  0  0  0  0  0
  -48.8511   -0.9791   14.1985 C   0  0  0  0  0  0
  -47.8318   -0.1584   13.7112 C   0  0  0  0  0  0
  -50.1800   -0.9845   13.5677 C   0  0  0  0  0  0
  -50.8429   -2.6379   15.2271 C   0  0  0  0  0  0
  -51.1827   -1.8893   14.1653 C   0  0  0  0  0  0
  -51.8003   -3.5672   15.8600 C   0  0  0  0  0  0
  -47.3141   -4.0376   16.7829 C   0  0  0  0  0  0
  -51.4573   -4.2330   17.0400 C   0  0  0  0  0  0
  -53.0539   -3.7849   15.2826 C   0  0  0  0  0  0
  -52.3620   -5.1097   17.6384 C   0  0  0  0  0  0
  -53.9586   -4.6625   15.8813 C   0  0  0  0  0  0
  -53.6124   -5.3248   17.0596 C   0  0  0  0  0  0
  -42.0907    0.3873   20.5272 H   0  0  0  0  0  0
  -43.4846   -2.5445   18.1708 H   0  0  0  0  0  0
  -45.1086    1.8595   21.2268 H   0  0  0  0  0  0
  -47.1487    3.3367   20.4890 H   0  0  0  0  0  0
  -48.7937    0.4185   12.1418 H   0  0  0  0  0  0
  1 15  1  0  0  0
  1 16  1  0  0  0
  2 15  1  0  0  0
  2 18  1  0  0  0
  3 12  1  0  0  0
  3 34  1  0  0  0
  4 13  1  0  0  0
  4 35  1  0  0  0
  5 14  1  0  0  0
  5 36  1  0  0  0
  6 17  1  0  0  0
  6 37  1  0  0  0
  7 17  2  0  0  0
  8 21  1  0  0  0
  8 25  1  0  0  0
  9 19  1  0  0  0
  9 28  1  0  0  0
 10 23  1  0  0  0
 10 38  1  0  0  0
 11 24  2  0  0  0
 12 13  1  0  0  0
 13 15  1  0  0  0
 14 12  1  0  0  0
 16 14  1  0  0  0
 16 17  1  0  0  0
 18 19  2  0  0  0
 18 20  1  0  0  0
 19 21  1  0  0  0
 20 23  2  0  0  0
 21 22  2  0  0  0
 22 23  1  0  0  0
 22 24  1  0  0  0
 24 26  1  0  0  0
 25 26  2  0  0  0
 25 27  1  0  0  0
 27 29  2  0  0  0
 27 30  1  0  0  0
 29 31  1  0  0  0
 30 32  2  0  0  0
 31 33  2  0  0  0
 32 33  1  0  0  0
M  END
>  <CHROM.0>
51.91087571,61.64766947,171.11062258

>  <CHROM.1>
-52.57817963,-54.85566866,-177.54349483,64.19488404,-173.95620248,2.15456199
-120.36471899,163.25110133,-173.01536206,7.25326887,-47.71738804,-1.15024073
16.70421475,-0.22333748,-0.59100251,-1.20169812

>  <Name>
Wogonoside.pdb

>  <RI>
-7.72422e+08

>  <Rbt.Current_Directory>
/root/miniconda3/envs/rdock/share/rxdock-2013.1.1_148c5bd1-0/data/ligands/prepped_ligands/Wogonoside

>  <Rbt.Executable>
rbdock/0.1.0

>  <Rbt.Library>
librxdock.so/0.1.0

>  <Rbt.Parameter_File>
/root/miniconda3/envs/rdock/share/rxdock-2013.1.1_148c5bd1-0/data/scripts/dock.prm

>  <Rbt.Receptor>
def.prm

>  <SCORE>
-16.0263

>  <SCORE.INTER>
-13.4993

>  <SCORE.INTER.CONST>
1

>  <SCORE.INTER.POLAR>
-1.66796

>  <SCORE.INTER.REPUL>
0.496778

>  <SCORE.INTER.ROT>
5

>  <SCORE.INTER.VDW>
-20.7121

>  <SCORE.INTER.norm>
-0.409069

>  <SCORE.INTRA>
-1.72837

>  <SCORE.INTRA.DIHEDRAL>
-1.95155

>  <SCORE.INTRA.DIHEDRAL.0>
10.6366

>  <SCORE.INTRA.POLAR>
-0.723624

>  <SCORE.INTRA.POLAR.0>
0

>  <SCORE.INTRA.REPUL>
0

>  <SCORE.INTRA.REPUL.0>
0

>  <SCORE.INTRA.VDW>
1.70773

>  <SCORE.INTRA.VDW.0>
-0.944467

>  <SCORE.INTRA.norm>
-0.0523748

>  <SCORE.RESTR>
0.00325583

>  <SCORE.RESTR.CAVITY>
0.00325583

>  <SCORE.RESTR.norm>
9.86614e-05

>  <SCORE.SYSTEM>
-0.801903

>  <SCORE.SYSTEM.CONST>
0

>  <SCORE.SYSTEM.DIHEDRAL>
0.376898

>  <SCORE.SYSTEM.VDW>
-0.990352

>  <SCORE.SYSTEM.norm>
-0.0243001

>  <SCORE.heavy>
33

>  <SCORE.norm>
-0.485646

$$$$
Wogonoside.pdb
  RxDock  02242101433D
librxdock.so/0.1.0
 38 41  0  0  0  0  0  0  0  0999 V2000
  -52.2739   -3.9060   18.3845 O   0  0  0  0  0  0
  -52.3063   -1.8286   17.3236 O   0  0  0  0  0  0
  -51.6627   -5.8642   14.8257 O   0  0  0  0  0  0
  -52.7303   -3.1200   14.8469 O   0  0  0  0  0  0
  -52.6491   -7.3240   17.1385 O   0  0  0  0  0  0
  -52.4686   -4.9985   20.6905 O   0  0  0  0  0  0
  -51.4920   -6.8361   19.7610 O   0  0  0  0  0  0
  -47.5755   -1.7480   16.8273 O   0  0  0  0  0  0
  -50.0365   -2.1860   15.7796 O   0  0  0  0  0  0
  -49.6485   -0.5698   21.0471 O   0  0  0  0  0  0
  -47.0496   -0.5542   20.6869 O   0  0  0  0  0  0
  -52.4470   -5.2863   15.8705 C   0  0  0  0  0  0
  -52.1480   -3.7898   15.9638 C   0  0  0  0  0  0
  -52.1025   -6.0067   17.1744 C   0  0  0  0  0  0
  -52.7331   -3.1871   17.2419 C   0  0  0  0  0  0
  -52.6878   -5.2669   18.3707 C   0  0  0  0  0  0
  -52.1419   -5.8059   19.6532 C   0  0  0  0  0  0
  -51.0691   -1.6072   17.8546 C   0  0  0  0  0  0
  -49.9229   -1.7864   17.0793 C   0  0  0  0  0  0
  -50.9581   -1.1986   19.1844 C   0  0  0  0  0  0
  -48.6646   -1.5552   17.6377 C   0  0  0  0  0  0
  -48.5569   -1.1469   18.9658 C   0  0  0  0  0  0
  -49.7019   -0.9666   19.7445 C   0  0  0  0  0  0
  -47.2184   -0.9120   19.5291 C   0  0  0  0  0  0
  -46.3130   -1.5194   17.3523 C   0  0  0  0  0  0
  -46.0782   -1.1315   18.6163 C   0  0  0  0  0  0
  -45.2127   -1.7633   16.3981 C   0  0  0  0  0  0
  -50.1337   -1.1606   14.7940 C   0  0  0  0  0  0
  -43.8987   -1.8878   16.8579 C   0  0  0  0  0  0
  -45.4800   -1.8714   15.0309 C   0  0  0  0  0  0
  -42.8598   -2.1194   15.9567 C   0  0  0  0  0  0
  -44.4402   -2.1026   14.1295 C   0  0  0  0  0  0
  -43.1299   -2.2269   14.5928 C   0  0  0  0  0  0
  -50.7266   -5.7372   15.0540 H   0  0  0  0  0  0
  -52.2936   -3.4509   14.0438 H   0  0  0  0  0  0
  -53.6097   -7.2485   17.0091 H   0  0  0  0  0  0
  -52.9110   -4.1757   20.3906 H   0  0  0  0  0  0
  -50.4940   -0.7385   21.4885 H   0  0  0  0  0  0
  1 15  1  0  0  0
  1 16  1  0  0  0
  2 15  1  0  0  0
  2 18  1  0  0  0
  3 12  1  0  0  0
  3 34  1  0  0  0
  4 13  1  0  0  0
  4 35  1  0  0  0
  5 14  1  0  0  0
  5 36  1  0  0  0
  6 17  1  0  0  0
  6 37  1  0  0  0
  7 17  2  0  0  0
  8 21  1  0  0  0
  8 25  1  0  0  0
  9 19  1  0  0  0
  9 28  1  0  0  0
 10 23  1  0  0  0
 10 38  1  0  0  0
 11 24  2  0  0  0
 12 13  1  0  0  0
 13 15  1  0  0  0
 14 12  1  0  0  0
 16 14  1  0  0  0
 16 17  1  0  0  0
 18 19  2  0  0  0
 18 20  1  0  0  0
 19 21  1  0  0  0
 20 23  2  0  0  0
 21 22  2  0  0  0
 22 23  1  0  0  0
 22 24  1  0  0  0
 24 26  1  0  0  0
 25 26  2  0  0  0
 25 27  1  0  0  0
 27 29  2  0  0  0
 27 30  1  0  0  0
 29 31  1  0  0  0
 30 32  2  0  0  0
 31 33  2  0  0  0
 32 33  1  0  0  0
M  END
>  <CHROM.0>
-169.85455716,57.41412469,57.47574928

>  <CHROM.1>
36.82208239,79.83844948,61.26003092,-63.81773251,-58.13575586,174.06421281
90.71781312,15.91962868,49.65722683,-164.66695370,-49.48311999,-2.90297710
17.44374424,3.08416280,-0.45686066,-2.01989503

>  <Name>
Wogonoside.pdb

>  <RI>
-7.72422e+08

>  <Rbt.Current_Directory>
/root/miniconda3/envs/rdock/share/rxdock-2013.1.1_148c5bd1-0/data/ligands/prepped_ligands/Wogonoside

>  <Rbt.Executable>
rbdock/0.1.0

>  <Rbt.Library>
librxdock.so/0.1.0

>  <Rbt.Parameter_File>
/root/miniconda3/envs/rdock/share/rxdock-2013.1.1_148c5bd1-0/data/scripts/dock.prm

>  <Rbt.Receptor>
def.prm

>  <SCORE>
-5.20053

>  <SCORE.INTER>
-7.32468

>  <SCORE.INTER.CONST>
1

>  <SCORE.INTER.POLAR>
0

>  <SCORE.INTER.REPUL>
0

>  <SCORE.INTER.ROT>
5

>  <SCORE.INTER.VDW>
-17.7247

>  <SCORE.INTER.norm>
-0.22196

>  <SCORE.INTRA>
2.72527

>  <SCORE.INTRA.DIHEDRAL>
3.12985

>  <SCORE.INTRA.DIHEDRAL.0>
10.6366

>  <SCORE.INTRA.POLAR>
-0.0971794

>  <SCORE.INTRA.POLAR.0>
0

>  <SCORE.INTRA.REPUL>
0

>  <SCORE.INTRA.REPUL.0>
0

>  <SCORE.INTRA.VDW>
1.49076

>  <SCORE.INTRA.VDW.0>
-0.944467

>  <SCORE.INTRA.norm>
0.082584

>  <SCORE.RESTR>
0.127586

>  <SCORE.RESTR.CAVITY>
0.127586

>  <SCORE.RESTR.norm>
0.00386623

>  <SCORE.SYSTEM>
-0.728705

>  <SCORE.SYSTEM.CONST>
0

>  <SCORE.SYSTEM.DIHEDRAL>
0.291789

>  <SCORE.SYSTEM.VDW>
-0.874599

>  <SCORE.SYSTEM.norm>
-0.022082

>  <SCORE.heavy>
33

>  <SCORE.norm>
-0.157592

$$$$
Wogonoside.pdb
  RxDock  02242101433D
librxdock.so/0.1.0
 38 41  0  0  0  0  0  0  0  0999 V2000
  -46.8107   -0.2095   20.1496 O   0  0  0  0  0  0
  -48.4668   -0.0817   18.5116 O   0  0  0  0  0  0
  -43.9878   -1.3603   17.3964 O   0  0  0  0  0  0
  -46.8555   -1.6343   16.7868 O   0  0  0  0  0  0
  -43.5326   -1.8293   20.2294 O   0  0  0  0  0  0
  -44.8344    1.0762   21.5337 O   0  0  0  0  0  0
  -45.4545   -0.5081   23.0503 O   0  0  0  0  0  0
  -51.1531   -3.6057   16.7802 O   0  0  0  0  0  0
  -49.7413   -2.5194   18.8228 O   0  0  0  0  0  0
  -50.0199    0.2275   14.0389 O   0  0  0  0  0  0
  -51.4930   -1.7598   13.1643 O   0  0  0  0  0  0
  -45.0245   -1.5697   18.3566 C   0  0  0  0  0  0
  -46.3084   -0.8929   17.8759 C   0  0  0  0  0  0
  -44.5558   -0.9925   19.6926 C   0  0  0  0  0  0
  -47.3547   -0.8359   18.9900 C   0  0  0  0  0  0
  -45.7078   -0.9294   20.6874 C   0  0  0  0  0  0
  -45.3309   -0.1316   21.8935 C   0  0  0  0  0  0
  -49.1764   -0.6254   17.4809 C   0  0  0  0  0  0
  -49.8201   -1.8539   17.6344 C   0  0  0  0  0  0
  -49.2542    0.0590   16.2673 C   0  0  0  0  0  0
  -50.5426   -2.3962   16.5700 C   0  0  0  0  0  0
  -50.6187   -1.7101   15.3594 C   0  0  0  0  0  0
  -49.9758   -0.4806   15.2024 C   0  0  0  0  0  0
  -51.3854   -2.3055   14.2541 C   0  0  0  0  0  0
  -51.8836   -4.1657   15.7435 C   0  0  0  0  0  0
  -52.0255   -3.6075   14.5304 C   0  0  0  0  0  0
  -52.4924   -5.4698   16.0740 C   0  0  0  0  0  0
  -50.8639   -2.4192   19.6958 C   0  0  0  0  0  0
  -51.9580   -6.2548   17.0994 C   0  0  0  0  0  0
  -53.6062   -5.9250   15.3636 C   0  0  0  0  0  0
  -52.5339   -7.4859   17.4124 C   0  0  0  0  0  0
  -54.1817   -7.1570   15.6766 C   0  0  0  0  0  0
  -53.6454   -7.9374   16.7014 C   0  0  0  0  0  0
  -43.2120   -1.8709   17.6828 H   0  0  0  0  0  0
  -47.0749   -2.5228   17.1152 H   0  0  0  0  0  0
  -42.7768   -1.8116   19.6182 H   0  0  0  0  0  0
  -44.8913    1.2232   20.5653 H   0  0  0  0  0  0
  -49.8983    1.1728   14.2117 H   0  0  0  0  0  0
  1 15  1  0  0  0
  1 16  1  0  0  0
  2 15  1  0  0  0
  2 18  1  0  0  0
  3 12  1  0  0  0
  3 34  1  0  0  0
  4 13  1  0  0  0
  4 35  1  0  0  0
  5 14  1  0  0  0
  5 36  1  0  0  0
  6 17  1  0  0  0
  6 37  1  0  0  0
  7 17  2  0  0  0
  8 21  1  0  0  0
  8 25  1  0  0  0
  9 19  1  0  0  0
  9 28  1  0  0  0
 10 23  1  0  0  0
 10 38  1  0  0  0
 11 24  2  0  0  0
 12 13  1  0  0  0
 13 15  1  0  0  0
 14 12  1  0  0  0
 16 14  1  0  0  0
 16 17  1  0  0  0
 18 19  2  0  0  0
 18 20  1  0  0  0
 19 21  1  0  0  0
 20 23  2  0  0  0
 21 22  2  0  0  0
 22 23  1  0  0  0
 22 24  1  0  0  0
 24 26  1  0  0  0
 25 26  2  0  0  0
 25 27  1  0  0  0
 27 29  2  0  0  0
 27 30  1  0  0  0
 29 31  1  0  0  0
 30 32  2  0  0  0
 31 33  2  0  0  0
 32 33  1  0  0  0
M  END
>  <CHROM.0>
-55.21479564,-64.32679825,-75.49681285

>  <CHROM.1>
-173.80022280,61.25785690,-174.58679101,61.99090319,63.15507314,-174.78858851
100.63313987,-26.22979627,-67.44142627,-22.89358390,-48.94209005,-2.24166159
17.62398378,0.05661364,0.71517298,2.28137894

>  <Name>
Wogonoside.pdb

>  <RI>
-7.72422e+08

>  <Rbt.Current_Directory>
/root/miniconda3/envs/rdock/share/rxdock-2013.1.1_148c5bd1-0/data/ligands/prepped_ligands/Wogonoside

>  <Rbt.Executable>
rbdock/0.1.0

>  <Rbt.Library>
librxdock.so/0.1.0

>  <Rbt.Parameter_File>
/root/miniconda3/envs/rdock/share/rxdock-2013.1.1_148c5bd1-0/data/scripts/dock.prm

>  <Rbt.Receptor>
def.prm

>  <SCORE>
-7.21715

>  <SCORE.INTER>
-8.44429

>  <SCORE.INTER.CONST>
1

>  <SCORE.INTER.POLAR>
-0.466308

>  <SCORE.INTER.REPUL>
0.00251882

>  <SCORE.INTER.ROT>
5

>  <SCORE.INTER.VDW>
-17.2714

>  <SCORE.INTER.norm>
-0.255888

>  <SCORE.INTRA>
1.9548

>  <SCORE.INTRA.DIHEDRAL>
0.848792

>  <SCORE.INTRA.DIHEDRAL.0>
10.6366

>  <SCORE.INTRA.POLAR>
0

>  <SCORE.INTRA.POLAR.0>
0

>  <SCORE.INTRA.REPUL>
0

>  <SCORE.INTRA.REPUL.0>
0

>  <SCORE.INTRA.VDW>
1.5304

>  <SCORE.INTRA.VDW.0>
-0.944467

>  <SCORE.INTRA.norm>
0.0592363

>  <SCORE.RESTR>
7.74895e-05

>  <SCORE.RESTR.CAVITY>
7.74895e-05

>  <SCORE.RESTR.norm>
2.34817e-06

>  <SCORE.SYSTEM>
-0.727731

>  <SCORE.SYSTEM.CONST>
0

>  <SCORE.SYSTEM.DIHEDRAL>
0.716899

>  <SCORE.SYSTEM.VDW>
-1.08618

>  <SCORE.SYSTEM.norm>
-0.0220525

>  <SCORE.heavy>
33

>  <SCORE.norm>
-0.218701

$$$$
Wogonoside.pdb
  RxDock  02242101433D
librxdock.so/0.1.0
 38 41  0  0  0  0  0  0  0  0999 V2000
  -47.9964   -2.4393   17.4605 O   0  0  0  0  0  0
  -47.1997   -4.1434   16.0809 O   0  0  0  0  0  0
  -45.8792    0.4087   15.3917 O   0  0  0  0  0  0
  -45.1345   -2.4331   15.1912 O   0  0  0  0  0  0
  -46.8616    0.9843   18.0669 O   0  0  0  0  0  0
  -50.0116   -0.9082   17.9354 O   0  0  0  0  0  0
  -49.1629   -0.7102   20.0414 O   0  0  0  0  0  0
  -51.5092   -6.1437   16.3235 O   0  0  0  0  0  0
  -49.7636   -4.4763   15.0915 O   0  0  0  0  0  0
  -48.1001   -7.1883   19.6066 O   0  0  0  0  0  0
  -50.5017   -8.2433   19.6664 O   0  0  0  0  0  0
  -46.0797   -0.5759   16.4071 C   0  0  0  0  0  0
  -46.3456   -1.9331   15.7553 C   0  0  0  0  0  0
  -47.2599   -0.1309   17.2713 C   0  0  0  0  0  0
  -46.8521   -2.9495   16.7797 C   0  0  0  0  0  0
  -47.7067   -1.2564   18.1958 C   0  0  0  0  0  0
  -49.0106   -0.9281   18.8478 C   0  0  0  0  0  0
  -48.0756   -4.9836   16.7040 C   0  0  0  0  0  0
  -49.3687   -5.1538   16.2080 C   0  0  0  0  0  0
  -47.6671   -5.6744   17.8457 C   0  0  0  0  0  0
  -50.2525   -6.0176   16.8571 C   0  0  0  0  0  0
  -49.8416   -6.7064   17.9968 C   0  0  0  0  0  0
  -48.5483   -6.5384   18.4958 C   0  0  0  0  0  0
  -50.7940   -7.6090   18.6618 C   0  0  0  0  0  0
  -52.4067   -7.0000   16.9427 C   0  0  0  0  0  0
  -52.1335   -7.7118   18.0481 C   0  0  0  0  0  0
  -53.7308   -7.0553   16.2913 C   0  0  0  0  0  0
  -50.4796   -3.2600   15.2925 C   0  0  0  0  0  0
  -54.2832   -8.2862   15.9263 C   0  0  0  0  0  0
  -54.4382   -5.8775   16.0373 C   0  0  0  0  0  0
  -55.5344   -8.3384   15.3123 C   0  0  0  0  0  0
  -55.6897   -5.9301   15.4225 C   0  0  0  0  0  0
  -56.2378   -7.1610   15.0602 C   0  0  0  0  0  0
  -45.1407    0.1119   14.8339 H   0  0  0  0  0  0
  -45.3278   -3.3017   14.7994 H   0  0  0  0  0  0
  -46.5611    1.6894   17.4689 H   0  0  0  0  0  0
  -49.6907   -1.1221   17.0332 H   0  0  0  0  0  0
  -48.8191   -7.6875   20.0214 H   0  0  0  0  0  0
  1 15  1  0  0  0
  1 16  1  0  0  0
  2 15  1  0  0  0
  2 18  1  0  0  0
  3 12  1  0  0  0
  3 34  1  0  0  0
  4 13  1  0  0  0
  4 35  1  0  0  0
  5 14  1  0  0  0
  5 36  1  0  0  0
  6 17  1  0  0  0
  6 37  1  0  0  0
  7 17  2  0  0  0
  8 21  1  0  0  0
  8 25  1  0  0  0
  9 19  1  0  0  0
  9 28  1  0  0  0
 10 23  1  0  0  0
 10 38  1  0  0  0
 11 24  2  0  0  0
 12 13  1  0  0  0
 13 15  1  0  0  0
 14 12  1  0  0  0
 16 14  1  0  0  0
 16 17  1  0  0  0
 18 19  2  0  0  0
 18 20  1  0  0  0
 19 21  1  0  0  0
 20 23  2  0  0  0
 21 22  2  0  0  0
 22 23  1  0  0  0
 22 24  1  0  0  0
 24 26  1  0  0  0
 25 26  2  0  0  0
 25 27  1  0  0  0
 27 29  2  0  0  0
 27 30  1  0  0  0
 29 31  1  0  0  0
 30 32  2  0  0  0
 31 33  2  0  0  0
 32 33  1  0  0  0
M  END
>  <CHROM.0>
-46.63423125,-177.95514726,-177.27689525

>  <CHROM.1>
-37.85397053,110.87885263,-57.32439167,178.94877320,57.95313731,-179.09103559
-96.32582859,174.33893555,-51.37727377,127.31644029,-49.70479057,-4.29051117
17.01296884,-0.68038535,0.37681124,2.79081064

>  <Name>
Wogonoside.pdb

>  <RI>
-7.72422e+08

>  <Rbt.Current_Directory>
/root/miniconda3/envs/rdock/share/rxdock-2013.1.1_148c5bd1-0/data/ligands/prepped_ligands/Wogonoside

>  <Rbt.Executable>
rbdock/0.1.0

>  <Rbt.Library>
librxdock.so/0.1.0

>  <Rbt.Parameter_File>
/root/miniconda3/envs/rdock/share/rxdock-2013.1.1_148c5bd1-0/data/scripts/dock.prm

>  <Rbt.Receptor>
def.prm

>  <SCORE>
-12.5758

>  <SCORE.INTER>
-13.5092

>  <SCORE.INTER.CONST>
1

>  <SCORE.INTER.POLAR>
0

>  <SCORE.INTER.REPUL>
0

>  <SCORE.INTER.ROT>
5

>  <SCORE.INTER.VDW>
-23.9092

>  <SCORE.INTER.norm>
-0.409369

>  <SCORE.INTRA>
1.73908

>  <SCORE.INTRA.DIHEDRAL>
4.51535

>  <SCORE.INTRA.DIHEDRAL.0>
10.6366

>  <SCORE.INTRA.POLAR>
-0.0508425

>  <SCORE.INTRA.POLAR.0>
0

>  <SCORE.INTRA.REPUL>
0

>  <SCORE.INTRA.REPUL.0>
0

>  <SCORE.INTRA.VDW>
-0.345737

>  <SCORE.INTRA.VDW.0>
-0.944467

>  <SCORE.INTRA.norm>
0.0526993

>  <SCORE.RESTR>
0

>  <SCORE.RESTR.CAVITY>
0

>  <SCORE.RESTR.norm>
0

>  <SCORE.SYSTEM>
-0.80566

>  <SCORE.SYSTEM.CONST>
0

>  <SCORE.SYSTEM.DIHEDRAL>
0.45084

>  <SCORE.SYSTEM.POLAR>
-0.00812513

>  <SCORE.SYSTEM.VDW>
-1.00345

>  <SCORE.SYSTEM.norm>
-0.0244139

>  <SCORE.heavy>
33

>  <SCORE.norm>
-0.381084

$$$$
Wogonoside.pdb
  RxDock  02242101443D
librxdock.so/0.1.0
 38 41  0  0  0  0  0  0  0  0999 V2000
  -49.4561   -6.4123   18.1004 O   0  0  0  0  0  0
  -50.5195   -4.3383   18.0015 O   0  0  0  0  0  0
  -52.2006   -7.8414   20.8019 O   0  0  0  0  0  0
  -51.8802   -4.9416   20.4028 O   0  0  0  0  0  0
  -49.6316   -9.1685   20.4980 O   0  0  0  0  0  0
  -47.9742   -9.5626   18.5210 O   0  0  0  0  0  0
  -48.1351   -8.1361   16.7508 O   0  0  0  0  0  0
  -49.2103   -1.0927   14.7790 O   0  0  0  0  0  0
  -51.1609   -2.4596   16.0721 O   0  0  0  0  0  0
  -45.8928   -3.5005   17.3654 O   0  0  0  0  0  0
  -45.2593   -1.6973   15.5679 O   0  0  0  0  0  0
  -50.9966   -7.1868   20.3987 C   0  0  0  0  0  0
  -51.3423   -5.9575   19.5579 C   0  0  0  0  0  0
  -50.1567   -8.1877   19.6049 C   0  0  0  0  0  0
  -50.1012   -5.3950   18.8634 C   0  0  0  0  0  0
  -48.9957   -7.4874   18.9103 C   0  0  0  0  0  0
  -48.3307   -8.3975   17.9292 C   0  0  0  0  0  0
  -49.5347   -3.6524   17.3526 C   0  0  0  0  0  0
  -49.8544   -2.7047   16.3796 C   0  0  0  0  0  0
  -48.1999   -3.9065   17.6705 C   0  0  0  0  0  0
  -48.8348   -2.0111   15.7253 C   0  0  0  0  0  0
  -47.5027   -2.2668   16.0452 C   0  0  0  0  0  0
  -47.1793   -3.2145   17.0184 C   0  0  0  0  0  0
  -46.4485   -1.5227   15.3390 C   0  0  0  0  0  0
  -48.2196   -0.3834   14.1176 C   0  0  0  0  0  0
  -46.9036   -0.5441   14.3308 C   0  0  0  0  0  0
  -48.7327    0.5727   13.1159 C   0  0  0  0  0  0
  -51.6713   -3.0662   14.8873 C   0  0  0  0  0  0
  -50.0048    1.1320   13.2658 C   0  0  0  0  0  0
  -47.9488    0.9233   12.0138 C   0  0  0  0  0  0
  -50.4887    2.0360   12.3205 C   0  0  0  0  0  0
  -48.4335    1.8274   11.0678 C   0  0  0  0  0  0
  -49.7038    2.3839   11.2216 C   0  0  0  0  0  0
  -52.6003   -8.2390   20.0102 H   0  0  0  0  0  0
  -52.0492   -4.1585   19.8520 H   0  0  0  0  0  0
  -50.3786   -9.6617   20.8774 H   0  0  0  0  0  0
  -47.4905  -10.1543   17.9058 H   0  0  0  0  0  0
  -45.2776   -2.9122   16.9033 H   0  0  0  0  0  0
  1 15  1  0  0  0
  1 16  1  0  0  0
  2 15  1  0  0  0
  2 18  1  0  0  0
  3 12  1  0  0  0
  3 34  1  0  0  0
  4 13  1  0  0  0
  4 35  1  0  0  0
  5 14  1  0  0  0
  5 36  1  0  0  0
  6 17  1  0  0  0
  6 37  1  0  0  0
  7 17  2  0  0  0
  8 21  1  0  0  0
  8 25  1  0  0  0
  9 19  1  0  0  0
  9 28  1  0  0  0
 10 23  1  0  0  0
 10 38  1  0  0  0
 11 24  2  0  0  0
 12 13  1  0  0  0
 13 15  1  0  0  0
 14 12  1  0  0  0
 16 14  1  0  0  0
 16 17  1  0  0  0
 18 19  2  0  0  0
 18 20  1  0  0  0
 19 21  1  0  0  0
 20 23  2  0  0  0
 21 22  2  0  0  0
 22 23  1  0  0  0
 22 24  1  0  0  0
 24 26  1  0  0  0
 25 26  2  0  0  0
 25 27  1  0  0  0
 27 29  2  0  0  0
 27 30  1  0  0  0
 29 31  1  0  0  0
 30 32  2  0  0  0
 31 33  2  0  0  0
 32 33  1  0  0  0
M  END
>  <CHROM.0>
-58.68575166,64.36048055,-60.17587025

>  <CHROM.1>
-63.62466995,172.84903548,69.58002348,177.22812723,63.98318896,3.43495501
-100.92623572,-175.38307434,-172.54955547,27.41585985,-49.15719545,-3.70639930
16.61872861,-1.69772581,0.22155502,-0.62607928

>  <Name>
Wogonoside.pdb

>  <RI>
-7.72422e+08

>  <Rbt.Current_Directory>
/root/miniconda3/envs/rdock/share/rxdock-2013.1.1_148c5bd1-0/data/ligands/prepped_ligands/Wogonoside

>  <Rbt.Executable>
rbdock/0.1.0

>  <Rbt.Library>
librxdock.so/0.1.0

>  <Rbt.Parameter_File>
/root/miniconda3/envs/rdock/share/rxdock-2013.1.1_148c5bd1-0/data/scripts/dock.prm

>  <Rbt.Receptor>
def.prm

>  <SCORE>
-11.4582

>  <SCORE.INTER>
-11.2915

>  <SCORE.INTER.CONST>
1

>  <SCORE.INTER.POLAR>
-0.164525

>  <SCORE.INTER.REPUL>
0

>  <SCORE.INTER.ROT>
5

>  <SCORE.INTER.VDW>
-21.1321

>  <SCORE.INTER.norm>
-0.342166

>  <SCORE.INTRA>
0.848206

>  <SCORE.INTRA.DIHEDRAL>
-3.3671

>  <SCORE.INTRA.DIHEDRAL.0>
10.6366

>  <SCORE.INTRA.POLAR>
-0.0282422

>  <SCORE.INTRA.POLAR.0>
0

>  <SCORE.INTRA.REPUL>
0

>  <SCORE.INTRA.REPUL.0>
0

>  <SCORE.INTRA.VDW>
2.62778

>  <SCORE.INTRA.VDW.0>
-0.944467

>  <SCORE.INTRA.norm>
0.0257032

>  <SCORE.RESTR>
0.00540843

>  <SCORE.RESTR.CAVITY>
0.00540843

>  <SCORE.RESTR.norm>
0.000163892

>  <SCORE.SYSTEM>
-1.02029

>  <SCORE.SYSTEM.CONST>
0

>  <SCORE.SYSTEM.DIHEDRAL>
0.0971325

>  <SCORE.SYSTEM.POLAR>
-0.000323035

>  <SCORE.SYSTEM.VDW>
-1.06776

>  <SCORE.SYSTEM.norm>
-0.0309179

>  <SCORE.heavy>
33

>  <SCORE.norm>
-0.347217

$$$$
Wogonoside.pdb
  RxDock  02242101443D
librxdock.so/0.1.0
 38 41  0  0  0  0  0  0  0  0999 V2000
  -48.1917   -1.3945   18.9366 O   0  0  0  0  0  0
  -48.0613   -1.7919   16.6416 O   0  0  0  0  0  0
  -47.2861    2.5808   18.4358 O   0  0  0  0  0  0
  -46.6500    0.6343   16.3198 O   0  0  0  0  0  0
  -46.9783    1.3363   21.0453 O   0  0  0  0  0  0
  -48.0171   -0.8114   22.3910 O   0  0  0  0  0  0
  -49.5367   -1.8654   21.0590 O   0  0  0  0  0  0
  -51.5653   -5.0039   16.4470 O   0  0  0  0  0  0
  -50.6576   -2.4924   15.9842 O   0  0  0  0  0  0
  -47.2254   -6.1726   18.2613 O   0  0  0  0  0  0
  -49.2127   -7.8798   18.1181 O   0  0  0  0  0  0
  -46.9897    1.1984   18.6409 C   0  0  0  0  0  0
  -47.4906    0.3872   17.4456 C   0  0  0  0  0  0
  -47.6670    0.7567   19.9385 C   0  0  0  0  0  0
  -47.4630   -1.1126   17.7438 C   0  0  0  0  0  0
  -47.6285   -0.7598   20.0784 C   0  0  0  0  0  0
  -48.5090   -1.2171   21.1959 C   0  0  0  0  0  0
  -48.5147   -3.0572   16.8763 C   0  0  0  0  0  0
  -49.8227   -3.4137   16.5461 C   0  0  0  0  0  0
  -47.6569   -3.9960   17.4512 C   0  0  0  0  0  0
  -50.2707   -4.7127   16.7923 C   0  0  0  0  0  0
  -49.4118   -5.6481   17.3662 C   0  0  0  0  0  0
  -48.1022   -5.2947   17.6978 C   0  0  0  0  0  0
  -49.9107   -7.0092   17.6162 C   0  0  0  0  0  0
  -52.0362   -6.2880   16.6733 C   0  0  0  0  0  0
  -51.3103   -7.2736   17.2254 C   0  0  0  0  0  0
  -53.4427   -6.4912   16.2719 C   0  0  0  0  0  0
  -51.3863   -1.6515   16.8753 C   0  0  0  0  0  0
  -54.2354   -5.3979   15.9117 C   0  0  0  0  0  0
  -53.9878   -7.7776   16.2497 C   0  0  0  0  0  0
  -55.5633   -5.5900   15.5314 C   0  0  0  0  0  0
  -55.3167   -7.9694   15.8697 C   0  0  0  0  0  0
  -56.1044   -6.8752   15.5103 C   0  0  0  0  0  0
  -46.7168    2.9016   17.7164 H   0  0  0  0  0  0
  -46.9611    0.0721   15.5901 H   0  0  0  0  0  0
  -47.3251    0.9348   21.8600 H   0  0  0  0  0  0
  -48.5737   -1.1151   23.1397 H   0  0  0  0  0  0
  -47.6002   -7.0657   18.2744 H   0  0  0  0  0  0
  1 15  1  0  0  0
  1 16  1  0  0  0
  2 15  1  0  0  0
  2 18  1  0  0  0
  3 12  1  0  0  0
  3 34  1  0  0  0
  4 13  1  0  0  0
  4 35  1  0  0  0
  5 14  1  0  0  0
  5 36  1  0  0  0
  6 17  1  0  0  0
  6 37  1  0  0  0
  7 17  2  0  0  0
  8 21  1  0  0  0
  8 25  1  0  0  0
  9 19  1  0  0  0
  9 28  1  0  0  0
 10 23  1  0  0  0
 10 38  1  0  0  0
 11 24  2  0  0  0
 12 13  1  0  0  0
 13 15  1  0  0  0
 14 12  1  0  0  0
 16 14  1  0  0  0
 16 17  1  0  0  0
 18 19  2  0  0  0
 18 20  1  0  0  0
 19 21  1  0  0  0
 20 23  2  0  0  0
 21 22  2  0  0  0
 22 23  1  0  0  0
 22 24  1  0  0  0
 24 26  1  0  0  0
 25 26  2  0  0  0
 25 27  1  0  0  0
 27 29  2  0  0  0
 27 30  1  0  0  0
 29 31  1  0  0  0
 30 32  2  0  0  0
 31 33  2  0  0  0
 32 33  1  0  0  0
M  END
>  <CHROM.0>
-68.63585703,63.99012702,61.33604309

>  <CHROM.1>
-39.58140814,127.62663718,-69.61243393,177.03593573,-170.89495629,1.18595318
-86.62014401,-172.31182408,173.37094469,-9.76691266,-49.76298090,-3.23876394
17.80654756,-0.78753989,0.53721220,3.07638029

>  <Name>
Wogonoside.pdb

>  <RI>
-7.72422e+08

>  <Rbt.Current_Directory>
/root/miniconda3/envs/rdock/share/rxdock-2013.1.1_148c5bd1-0/data/ligands/prepped_ligands/Wogonoside

>  <Rbt.Executable>
rbdock/0.1.0

>  <Rbt.Library>
librxdock.so/0.1.0

>  <Rbt.Parameter_File>
/root/miniconda3/envs/rdock/share/rxdock-2013.1.1_148c5bd1-0/data/scripts/dock.prm

>  <Rbt.Receptor>
def.prm

>  <SCORE>
-18.0576

>  <SCORE.INTER>
-15.8769

>  <SCORE.INTER.CONST>
1

>  <SCORE.INTER.POLAR>
-1.75684

>  <SCORE.INTER.REPUL>
0.0145028

>  <SCORE.INTER.ROT>
5

>  <SCORE.INTER.VDW>
-20.3761

>  <SCORE.INTER.norm>
-0.481117

>  <SCORE.INTRA>
-1.5909

>  <SCORE.INTRA.DIHEDRAL>
1.03278

>  <SCORE.INTRA.DIHEDRAL.0>
10.6366

>  <SCORE.INTRA.POLAR>
-0.7566

>  <SCORE.INTRA.POLAR.0>
0

>  <SCORE.INTRA.REPUL>
0

>  <SCORE.INTRA.REPUL.0>
0

>  <SCORE.INTRA.VDW>
0.465149

>  <SCORE.INTRA.VDW.0>
-0.944467

>  <SCORE.INTRA.norm>
-0.0482091

>  <SCORE.RESTR>
0.300242

>  <SCORE.RESTR.CAVITY>
0.300242

>  <SCORE.RESTR.norm>
0.00909826

>  <SCORE.SYSTEM>
-0.890041

>  <SCORE.SYSTEM.CONST>
0

>  <SCORE.SYSTEM.DIHEDRAL>
0.268856

>  <SCORE.SYSTEM.POLAR>
-0.00414779

>  <SCORE.SYSTEM.VDW>
-1.01037

>  <SCORE.SYSTEM.norm>
-0.026971

>  <SCORE.heavy>
33

>  <SCORE.norm>
-0.547199

$$$$
Wogonoside.pdb
  RxDock  02242101443D
librxdock.so/0.1.0
 38 41  0  0  0  0  0  0  0  0999 V2000
  -53.3757   -5.8642   16.5151 O   0  0  0  0  0  0
  -51.5132   -6.0820   17.9029 O   0  0  0  0  0  0
  -54.3077   -9.8446   16.9161 O   0  0  0  0  0  0
  -51.5964   -8.8831   17.5449 O   0  0  0  0  0  0
  -55.4122   -8.3071   14.7094 O   0  0  0  0  0  0
  -55.3880   -5.1275   13.9262 O   0  0  0  0  0  0
  -55.8564   -4.8427   16.1385 O   0  0  0  0  0  0
  -49.8378   -1.7472   18.9203 O   0  0  0  0  0  0
  -51.3612   -3.8881   19.5844 O   0  0  0  0  0  0
  -48.5742   -3.9960   14.8167 O   0  0  0  0  0  0
  -47.6994   -1.6062   15.4553 O   0  0  0  0  0  0
  -53.6677   -8.7157   16.3188 C   0  0  0  0  0  0
  -52.7407   -8.0562   17.3403 C   0  0  0  0  0  0
  -54.7550   -7.7502   15.8466 C   0  0  0  0  0  0
  -52.2618   -6.6885   16.8511 C   0  0  0  0  0  0
  -54.1514   -6.4077   15.4537 C   0  0  0  0  0  0
  -55.2175   -5.3814   15.2458 C   0  0  0  0  0  0
  -50.7453   -5.0060   17.5650 C   0  0  0  0  0  0
  -50.6664   -3.8985   18.4102 C   0  0  0  0  0  0
  -50.0365   -5.0214   16.3630 C   0  0  0  0  0  0
  -49.8757   -2.8059   18.0499 C   0  0  0  0  0  0
  -49.1687   -2.8243   16.8491 C   0  0  0  0  0  0
  -49.2455   -3.9310   16.0010 C   0  0  0  0  0  0
  -48.3446   -1.6588   16.4936 C   0  0  0  0  0  0
  -49.0554   -0.6507   18.5925 C   0  0  0  0  0  0
  -48.3352   -0.5454   17.4640 C   0  0  0  0  0  0
  -49.0919    0.4339   19.5940 C   0  0  0  0  0  0
  -50.5977   -3.8361   20.7872 C   0  0  0  0  0  0
  -49.1231    1.7692   19.1826 C   0  0  0  0  0  0
  -49.0959    0.1303   20.9579 C   0  0  0  0  0  0
  -49.1589    2.7934   20.1286 C   0  0  0  0  0  0
  -49.1312    1.1553   21.9041 C   0  0  0  0  0  0
  -49.1629    2.4871   21.4891 C   0  0  0  0  0  0
  -54.7888  -10.3164   16.2158 H   0  0  0  0  0  0
  -51.0021   -8.4183   18.1580 H   0  0  0  0  0  0
  -55.7445   -9.1874   14.9541 H   0  0  0  0  0  0
  -54.8770   -5.7479   13.3636 H   0  0  0  0  0  0
  -48.4619   -4.9175   14.5401 H   0  0  0  0  0  0
  1 15  1  0  0  0
  1 16  1  0  0  0
  2 15  1  0  0  0
  2 18  1  0  0  0
  3 12  1  0  0  0
  3 34  1  0  0  0
  4 13  1  0  0  0
  4 35  1  0  0  0
  5 14  1  0  0  0
  5 36  1  0  0  0
  6 17  1  0  0  0
  6 37  1  0  0  0
  7 17  2  0  0  0
  8 21  1  0  0  0
  8 25  1  0  0  0
  9 19  1  0  0  0
  9 28  1  0  0  0
 10 23  1  0  0  0
 10 38  1  0  0  0
 11 24  2  0  0  0
 12 13  1  0  0  0
 13 15  1  0  0  0
 14 12  1  0  0  0
 16 14  1  0  0  0
 16 17  1  0  0  0
 18 19  2  0  0  0
 18 20  1  0  0  0
 19 21  1  0  0  0
 20 23  2  0  0  0
 21 22  2  0  0  0
 22 23  1  0  0  0
 22 24  1  0  0  0
 24 26  1  0  0  0
 25 26  2  0  0  0
 25 27  1  0  0  0
 27 29  2  0  0  0
 27 30  1  0  0  0
 29 31  1  0  0  0
 30 32  2  0  0  0
 31 33  2  0  0  0
 32 33  1  0  0  0
M  END
>  <CHROM.0>
-166.16025144,147.10354641,49.33557277

>  <CHROM.1>
-74.41350960,139.57469640,-172.08270896,176.85450264,55.57060588,-171.78683171
116.45323888,-21.96786281,134.88645737,-140.37063416,-51.28360253,-3.95796810
17.47963835,2.28021332,-0.66687772,-2.23534957

>  <Name>
Wogonoside.pdb

>  <RI>
-7.72422e+08

>  <Rbt.Current_Directory>
/root/miniconda3/envs/rdock/share/rxdock-2013.1.1_148c5bd1-0/data/ligands/prepped_ligands/Wogonoside

>  <Rbt.Executable>
rbdock/0.1.0

>  <Rbt.Library>
librxdock.so/0.1.0

>  <Rbt.Parameter_File>
/root/miniconda3/envs/rdock/share/rxdock-2013.1.1_148c5bd1-0/data/scripts/dock.prm

>  <Rbt.Receptor>
def.prm

>  <SCORE>
9.76608

>  <SCORE.INTER>
2.4119

>  <SCORE.INTER.CONST>
1

>  <SCORE.INTER.POLAR>
-1.38044

>  <SCORE.INTER.REPUL>
0.714998

>  <SCORE.INTER.ROT>
5

>  <SCORE.INTER.VDW>
-6.86959

>  <SCORE.INTER.norm>
0.0730879

>  <SCORE.INTRA>
2.70949

>  <SCORE.INTRA.DIHEDRAL>
1.94265

>  <SCORE.INTRA.DIHEDRAL.0>
10.6366

>  <SCORE.INTRA.POLAR>
-0.0255241

>  <SCORE.INTRA.POLAR.0>
0

>  <SCORE.INTRA.REPUL>
0.00216637

>  <SCORE.INTRA.REPUL.0>
0

>  <SCORE.INTRA.VDW>
1.81412

>  <SCORE.INTRA.VDW.0>
-0.944467

>  <SCORE.INTRA.norm>
0.0821059

>  <SCORE.RESTR>
3.11073

>  <SCORE.RESTR.CAVITY>
3.11073

>  <SCORE.RESTR.norm>
0.0942647

>  <SCORE.SYSTEM>
1.53395

>  <SCORE.SYSTEM.CONST>
0

>  <SCORE.SYSTEM.DIHEDRAL>
4.86862

>  <SCORE.SYSTEM.VDW>
-0.900358

>  <SCORE.SYSTEM.norm>
0.0464834

>  <SCORE.heavy>
33

>  <SCORE.norm>
0.295942

$$$$
Wogonoside.pdb
  RxDock  02242101443D
librxdock.so/0.1.0
 38 41  0  0  0  0  0  0  0  0999 V2000
  -48.8705   -1.9345   16.5971 O   0  0  0  0  0  0
  -49.9084   -1.4935   18.6392 O   0  0  0  0  0  0
  -46.0242    0.9503   17.2678 O   0  0  0  0  0  0
  -48.5557    0.9833   18.7715 O   0  0  0  0  0  0
  -46.4912   -0.0334   14.5720 O   0  0  0  0  0  0
  -46.7505   -3.1529   14.9880 O   0  0  0  0  0  0
  -48.6694   -3.1100   13.7590 O   0  0  0  0  0  0
  -52.4284   -5.1175   16.8647 O   0  0  0  0  0  0
  -51.9124   -2.4598   16.9918 O   0  0  0  0  0  0
  -48.8880   -5.8970   20.0819 O   0  0  0  0  0  0
  -50.3273   -7.8354   19.0548 O   0  0  0  0  0  0
  -47.2758    0.4472   16.7977 C   0  0  0  0  0  0
  -48.0794   -0.1017   17.9770 C   0  0  0  0  0  0
  -46.9897   -0.6410   15.7626 C   0  0  0  0  0  0
  -49.2862   -0.9091   17.4965 C   0  0  0  0  0  0
  -48.2597   -1.4111   15.4237 C   0  0  0  0  0  0
  -47.9473   -2.6338   14.6234 C   0  0  0  0  0  0
  -50.1653   -2.8321   18.5780 C   0  0  0  0  0  0
  -51.1746   -3.3226   17.7487 C   0  0  0  0  0  0
  -49.4079   -3.7106   19.3540 C   0  0  0  0  0  0
  -51.4243   -4.6951   17.6973 C   0  0  0  0  0  0
  -50.6661   -5.5700   18.4732 C   0  0  0  0  0  0
  -49.6553   -5.0824   19.3041 C   0  0  0  0  0  0
  -50.9518   -7.0112   18.4008 C   0  0  0  0  0  0
  -52.6946   -6.4758   16.7875 C   0  0  0  0  0  0
  -52.0406   -7.4160   17.4887 C   0  0  0  0  0  0
  -53.7977   -6.8202   15.8681 C   0  0  0  0  0  0
  -51.7018   -2.4936   15.5823 C   0  0  0  0  0  0
  -54.0765   -6.0038   14.7685 C   0  0  0  0  0  0
  -54.5678   -7.9642   16.0927 C   0  0  0  0  0  0
  -55.1175   -6.3298   13.8995 C   0  0  0  0  0  0
  -55.6097   -8.2898   15.2234 C   0  0  0  0  0  0
  -55.8842   -7.4723   14.1265 C   0  0  0  0  0  0
  -46.2108    1.6798   17.8822 H   0  0  0  0  0  0
  -49.1284    1.5319   18.2091 H   0  0  0  0  0  0
  -46.2365   -0.7411   13.9560 H   0  0  0  0  0  0
  -46.5780   -4.0171   14.5567 H   0  0  0  0  0  0
  -49.4428   -6.4065   20.6907 H   0  0  0  0  0  0
  1 15  1  0  0  0
  1 16  1  0  0  0
  2 15  1  0  0  0
  2 18  1  0  0  0
  3 12  1  0  0  0
  3 34  1  0  0  0
  4 13  1  0  0  0
  4 35  1  0  0  0
  5 14  1  0  0  0
  5 36  1  0  0  0
  6 17  1  0  0  0
  6 37  1  0  0  0
  7 17  2  0  0  0
  8 21  1  0  0  0
  8 25  1  0  0  0
  9 19  1  0  0  0
  9 28  1  0  0  0
 10 23  1  0  0  0
 10 38  1  0  0  0
 11 24  2  0  0  0
 12 13  1  0  0  0
 13 15  1  0  0  0
 14 12  1  0  0  0
 16 14  1  0  0  0
 16 17  1  0  0  0
 18 19  2  0  0  0
 18 20  1  0  0  0
 19 21  1  0  0  0
 20 23  2  0  0  0
 21 22  2  0  0  0
 22 23  1  0  0  0
 22 24  1  0  0  0
 24 26  1  0  0  0
 25 26  2  0  0  0
 25 27  1  0  0  0
 27 29  2  0  0  0
 27 30  1  0  0  0
 29 31  1  0  0  0
 30 32  2  0  0  0
 31 33  2  0  0  0
 32 33  1  0  0  0
M  END
>  <CHROM.0>
61.39776242,-65.64002522,172.07143296

>  <CHROM.1>
-9.28752118,-71.52097974,-62.08998466,60.69692586,174.78802676,-7.00296431
109.89848976,121.50079750,-85.88672217,28.42885936,-50.33050649,-3.67786025
16.82051946,0.31473778,-0.76924781,-1.04380113

>  <Name>
Wogonoside.pdb

>  <RI>
-7.72422e+08

>  <Rbt.Current_Directory>
/root/miniconda3/envs/rdock/share/rxdock-2013.1.1_148c5bd1-0/data/ligands/prepped_ligands/Wogonoside

>  <Rbt.Executable>
rbdock/0.1.0

>  <Rbt.Library>
librxdock.so/0.1.0

>  <Rbt.Parameter_File>
/root/miniconda3/envs/rdock/share/rxdock-2013.1.1_148c5bd1-0/data/scripts/dock.prm

>  <Rbt.Receptor>
def.prm

>  <SCORE>
-13.3553

>  <SCORE.INTER>
-18.1414

>  <SCORE.INTER.CONST>
1

>  <SCORE.INTER.POLAR>
-2.29911

>  <SCORE.INTER.REPUL>
0.00921507

>  <SCORE.INTER.ROT>
5

>  <SCORE.INTER.VDW>
-20.7705

>  <SCORE.INTER.norm>
-0.54974

>  <SCORE.INTRA>
5.76226

>  <SCORE.INTRA.DIHEDRAL>
11.253

>  <SCORE.INTRA.DIHEDRAL.0>
10.6366

>  <SCORE.INTRA.POLAR>
0

>  <SCORE.INTRA.POLAR.0>
0

>  <SCORE.INTRA.REPUL>
0

>  <SCORE.INTRA.REPUL.0>
0

>  <SCORE.INTRA.VDW>
0.135772

>  <SCORE.INTRA.VDW.0>
-0.944467

>  <SCORE.INTRA.norm>
0.174614

>  <SCORE.RESTR>
0

>  <SCORE.RESTR.CAVITY>
0

>  <SCORE.RESTR.norm>
0

>  <SCORE.SYSTEM>
-0.976083

>  <SCORE.SYSTEM.CONST>
0

>  <SCORE.SYSTEM.DIHEDRAL>
0.318989

>  <SCORE.SYSTEM.VDW>
-1.13558

>  <SCORE.SYSTEM.norm>
-0.0295783

>  <SCORE.heavy>
33

>  <SCORE.norm>
-0.404705

$$$$
Wogonoside.pdb
  RxDock  02242101443D
librxdock.so/0.1.0
 38 41  0  0  0  0  0  0  0  0999 V2000
  -48.2590   -0.9971   16.2377 O   0  0  0  0  0  0
  -49.9388    0.4961   16.8625 O   0  0  0  0  0  0
  -45.6131    0.6511   18.9128 O   0  0  0  0  0  0
  -47.9916    2.1600   18.0547 O   0  0  0  0  0  0
  -44.6328   -0.9786   16.7136 O   0  0  0  0  0  0
  -45.8328   -2.8723   14.6651 O   0  0  0  0  0  0
  -47.5522   -3.5130   16.0172 O   0  0  0  0  0  0
  -52.4351   -3.5479   16.6452 O   0  0  0  0  0  0
  -51.2356   -1.4623   15.3974 O   0  0  0  0  0  0
  -51.0379   -1.7202   20.9113 O   0  0  0  0  0  0
  -52.4176   -3.9420   20.7001 O   0  0  0  0  0  0
  -46.2693    0.5195   17.6507 C   0  0  0  0  0  0
  -47.7673    0.7697   17.8269 C   0  0  0  0  0  0
  -45.9972   -0.8885   17.1205 C   0  0  0  0  0  0
  -48.5480    0.3570   16.5783 C   0  0  0  0  0  0
  -46.8861   -1.1952   15.9219 C   0  0  0  0  0  0
  -46.8208   -2.6444   15.5634 C   0  0  0  0  0  0
  -50.5417   -0.5522   17.4943 C   0  0  0  0  0  0
  -51.1961   -1.5411   16.7589 C   0  0  0  0  0  0
  -50.4986   -0.6285   18.8871 C   0  0  0  0  0  0
  -51.8074   -2.6075   17.4207 C   0  0  0  0  0  0
  -51.7624   -2.6811   18.8117 C   0  0  0  0  0  0
  -51.1083   -1.6932   19.5506 C   0  0  0  0  0  0
  -52.4164   -3.8148   19.4832 C   0  0  0  0  0  0
  -53.0451   -4.6222   17.2742 C   0  0  0  0  0  0
  -53.0769   -4.8014   18.6047 C   0  0  0  0  0  0
  -53.6960   -5.5700   16.3476 C   0  0  0  0  0  0
  -50.5546   -2.4823   14.6706 C   0  0  0  0  0  0
  -53.6581   -6.9431   16.6059 C   0  0  0  0  0  0
  -54.3535   -5.0987   15.2083 C   0  0  0  0  0  0
  -54.2739   -7.8380   15.7313 C   0  0  0  0  0  0
  -54.9691   -5.9945   14.3333 C   0  0  0  0  0  0
  -54.9294   -7.3644   14.5952 C   0  0  0  0  0  0
  -45.7022    1.5761   19.1972 H   0  0  0  0  0  0
  -47.5279    2.4036   18.8738 H   0  0  0  0  0  0
  -44.4927   -0.3487   15.9864 H   0  0  0  0  0  0
  -45.9245   -3.7481   14.2325 H   0  0  0  0  0  0
  -51.4224   -2.5401   21.2551 H   0  0  0  0  0  0
  1 15  1  0  0  0
  1 16  1  0  0  0
  2 15  1  0  0  0
  2 18  1  0  0  0
  3 12  1  0  0  0
  3 34  1  0  0  0
  4 13  1  0  0  0
  4 35  1  0  0  0
  5 14  1  0  0  0
  5 36  1  0  0  0
  6 17  1  0  0  0
  6 37  1  0  0  0
  7 17  2  0  0  0
  8 21  1  0  0  0
  8 25  1  0  0  0
  9 19  1  0  0  0
  9 28  1  0  0  0
 10 23  1  0  0  0
 10 38  1  0  0  0
 11 24  2  0  0  0
 12 13  1  0  0  0
 13 15  1  0  0  0
 14 12  1  0  0  0
 16 14  1  0  0  0
 16 17  1  0  0  0
 18 19  2  0  0  0
 18 20  1  0  0  0
 19 21  1  0  0  0
 20 23  2  0  0  0
 21 22  2  0  0  0
 22 23  1  0  0  0
 22 24  1  0  0  0
 24 26  1  0  0  0
 25 26  2  0  0  0
 25 27  1  0  0  0
 27 29  2  0  0  0
 27 30  1  0  0  0
 29 31  1  0  0  0
 30 32  2  0  0  0
 31 33  2  0  0  0
 32 33  1  0  0  0
M  END
>  <CHROM.0>
-178.76860033,-60.70213676,174.47067687

>  <CHROM.1>
35.97059378,-94.14551068,-64.92373055,-61.40831725,-62.62272953,15.91712432
114.92308412,-174.84581495,150.61157378,142.76522903,-50.17260954,-2.41037920
17.08622883,-0.45526051,-0.50813458,-2.21897594

>  <Name>
Wogonoside.pdb

>  <RI>
-7.72422e+08

>  <Rbt.Current_Directory>
/root/miniconda3/envs/rdock/share/rxdock-2013.1.1_148c5bd1-0/data/ligands/prepped_ligands/Wogonoside

>  <Rbt.Executable>
rbdock/0.1.0

>  <Rbt.Library>
librxdock.so/0.1.0

>  <Rbt.Parameter_File>
/root/miniconda3/envs/rdock/share/rxdock-2013.1.1_148c5bd1-0/data/scripts/dock.prm

>  <Rbt.Receptor>
def.prm

>  <SCORE>
-14.5159

>  <SCORE.INTER>
-15.6978

>  <SCORE.INTER.CONST>
1

>  <SCORE.INTER.POLAR>
-2.04702

>  <SCORE.INTER.REPUL>
0.0270687

>  <SCORE.INTER.ROT>
5

>  <SCORE.INTER.VDW>
-19.2733

>  <SCORE.INTER.norm>
-0.47569

>  <SCORE.INTRA>
2.23107

>  <SCORE.INTRA.DIHEDRAL>
5.94509

>  <SCORE.INTRA.DIHEDRAL.0>
10.6366

>  <SCORE.INTRA.POLAR>
0

>  <SCORE.INTRA.POLAR.0>
0

>  <SCORE.INTRA.REPUL>
0

>  <SCORE.INTRA.REPUL.0>
0

>  <SCORE.INTRA.VDW>
-0.741471

>  <SCORE.INTRA.VDW.0>
-0.944467

>  <SCORE.INTRA.norm>
0.0676083

>  <SCORE.RESTR>
0

>  <SCORE.RESTR.CAVITY>
0

>  <SCORE.RESTR.norm>
0

>  <SCORE.SYSTEM>
-1.04916

>  <SCORE.SYSTEM.CONST>
0

>  <SCORE.SYSTEM.DIHEDRAL>
0.0848177

>  <SCORE.SYSTEM.VDW>
-1.09157

>  <SCORE.SYSTEM.norm>
-0.0317926

>  <SCORE.heavy>
33

>  <SCORE.norm>
-0.439875

$$$$
Wogonoside.pdb
  RxDock  02242101443D
librxdock.so/0.1.0
 38 41  0  0  0  0  0  0  0  0999 V2000
  -50.9139   -5.8126   18.5350 O   0  0  0  0  0  0
  -51.3158   -3.5169   18.4341 O   0  0  0  0  0  0
  -53.6744   -6.5615   15.5868 O   0  0  0  0  0  0
  -53.7389   -4.0191   17.0710 O   0  0  0  0  0  0
  -52.8052   -8.7079   17.3448 O   0  0  0  0  0  0
  -49.3756   -7.8037   17.7036 O   0  0  0  0  0  0
  -50.0792   -8.7758   19.6413 O   0  0  0  0  0  0
  -46.8060   -2.0988   17.9016 O   0  0  0  0  0  0
  -48.9837   -2.4497   19.4764 O   0  0  0  0  0  0
  -49.2979   -3.9055   14.1574 O   0  0  0  0  0  0
  -46.8097   -3.0985   13.9521 O   0  0  0  0  0  0
  -53.2313   -6.3737   16.9318 C   0  0  0  0  0  0
  -52.6678   -4.9613   17.0900 C   0  0  0  0  0  0
  -52.1721   -7.4342   17.2335 C   0  0  0  0  0  0
  -51.9196   -4.8090   18.4152 C   0  0  0  0  0  0
  -51.4583   -7.1269   18.5438 C   0  0  0  0  0  0
  -50.2554   -7.9968   18.7153 C   0  0  0  0  0  0
  -50.2216   -3.3416   17.6381 C   0  0  0  0  0  0
  -49.0445   -2.8040   18.1602 C   0  0  0  0  0  0
  -50.2886   -3.7056   16.2926 C   0  0  0  0  0  0
  -47.9338   -2.6317   17.3323 C   0  0  0  0  0  0
  -48.0036   -2.9964   15.9891 C   0  0  0  0  0  0
  -49.1800   -3.5347   15.4635 C   0  0  0  0  0  0
  -46.8187   -2.8024   15.1392 C   0  0  0  0  0  0
  -45.6847   -1.9225   17.1056 C   0  0  0  0  0  0
  -45.6291   -2.2272   15.7990 C   0  0  0  0  0  0
  -44.5303   -1.3364   17.8158 C   0  0  0  0  0  0
  -49.0381   -1.0567   19.7743 C   0  0  0  0  0  0
  -43.5115   -2.1611   18.3009 C   0  0  0  0  0  0
  -44.4506    0.0455   18.0059 C   0  0  0  0  0  0
  -42.4206   -1.6074   18.9705 C   0  0  0  0  0  0
  -43.3593    0.5992   18.6764 C   0  0  0  0  0  0
  -42.3440   -0.2277   19.1586 C   0  0  0  0  0  0
  -54.0616   -7.4508   15.5245 H   0  0  0  0  0  0
  -53.3493   -3.1287   17.0975 H   0  0  0  0  0  0
  -53.0620   -8.9960   16.4525 H   0  0  0  0  0  0
  -48.5878   -8.3825   17.7863 H   0  0  0  0  0  0
  -50.0927   -4.4437   14.0276 H   0  0  0  0  0  0
  1 15  1  0  0  0
  1 16  1  0  0  0
  2 15  1  0  0  0
  2 18  1  0  0  0
  3 12  1  0  0  0
  3 34  1  0  0  0
  4 13  1  0  0  0
  4 35  1  0  0  0
  5 14  1  0  0  0
  5 36  1  0  0  0
  6 17  1  0  0  0
  6 37  1  0  0  0
  7 17  2  0  0  0
  8 21  1  0  0  0
  8 25  1  0  0  0
  9 19  1  0  0  0
  9 28  1  0  0  0
 10 23  1  0  0  0
 10 38  1  0  0  0
 11 24  2  0  0  0
 12 13  1  0  0  0
 13 15  1  0  0  0
 14 12  1  0  0  0
 16 14  1  0  0  0
 16 17  1  0  0  0
 18 19  2  0  0  0
 18 20  1  0  0  0
 19 21  1  0  0  0
 20 23  2  0  0  0
 21 22  2  0  0  0
 22 23  1  0  0  0
 22 24  1  0  0  0
 24 26  1  0  0  0
 25 26  2  0  0  0
 25 27  1  0  0  0
 27 29  2  0  0  0
 27 30  1  0  0  0
 29 31  1  0  0  0
 30 32  2  0  0  0
 31 33  2  0  0  0
 32 33  1  0  0  0
M  END
>  <CHROM.0>
-177.86298103,177.71849582,-61.45096651

>  <CHROM.1>
46.64152336,-128.89269181,-177.59685910,-175.31546318,73.16953755,1.61514395
-104.72159539,-13.64465430,-59.16364861,98.07131969,-48.89188524,-3.97455413
17.45473444,-2.78029188,-0.52191218,-0.84050586

>  <Name>
Wogonoside.pdb

>  <RI>
-7.72422e+08

>  <Rbt.Current_Directory>
/root/miniconda3/envs/rdock/share/rxdock-2013.1.1_148c5bd1-0/data/ligands/prepped_ligands/Wogonoside

>  <Rbt.Executable>
rbdock/0.1.0

>  <Rbt.Library>
librxdock.so/0.1.0

>  <Rbt.Parameter_File>
/root/miniconda3/envs/rdock/share/rxdock-2013.1.1_148c5bd1-0/data/scripts/dock.prm

>  <Rbt.Receptor>
def.prm

>  <SCORE>
-11.3903

>  <SCORE.INTER>
-12.9917

>  <SCORE.INTER.CONST>
1

>  <SCORE.INTER.POLAR>
-0.783406

>  <SCORE.INTER.REPUL>
0.0485127

>  <SCORE.INTER.ROT>
5

>  <SCORE.INTER.VDW>
-20.9707

>  <SCORE.INTER.norm>
-0.393687

>  <SCORE.INTRA>
2.66455

>  <SCORE.INTRA.DIHEDRAL>
4.36732

>  <SCORE.INTRA.DIHEDRAL.0>
10.6366

>  <SCORE.INTRA.POLAR>
-0.00126703

>  <SCORE.INTRA.POLAR.0>
0

>  <SCORE.INTRA.REPUL>
0

>  <SCORE.INTRA.REPUL.0>
0

>  <SCORE.INTRA.VDW>
0.485202

>  <SCORE.INTRA.VDW.0>
-0.944467

>  <SCORE.INTRA.norm>
0.080744

>  <SCORE.RESTR>
0

>  <SCORE.RESTR.CAVITY>
0

>  <SCORE.RESTR.norm>
0

>  <SCORE.SYSTEM>
-1.0632

>  <SCORE.SYSTEM.CONST>
0

>  <SCORE.SYSTEM.DIHEDRAL>
0.0419112

>  <SCORE.SYSTEM.VDW>
-1.08415

>  <SCORE.SYSTEM.norm>
-0.0322181

>  <SCORE.heavy>
33

>  <SCORE.norm>
-0.345161

$$$$
