Wogonoside.pdb
  RxDock  02242113283D
librxdock.so/0.1.0
 38 41  0  0  0  0  0  0  0  0999 V2000
  -50.6860   -4.9746   19.3244 O   0  0  0  0  0  0
  -51.6847   -3.7109   17.6369 O   0  0  0  0  0  0
  -51.6089   -8.4949   17.4194 O   0  0  0  0  0  0
  -53.0486   -6.0173   16.7416 O   0  0  0  0  0  0
  -50.9398   -8.5040   20.2489 O   0  0  0  0  0  0
  -48.4522   -6.4895   20.3738 O   0  0  0  0  0  0
  -49.5016   -5.5055   22.1415 O   0  0  0  0  0  0
  -47.1099   -2.4162   17.8034 O   0  0  0  0  0  0
  -49.4874   -2.7933   19.0488 O   0  0  0  0  0  0
  -49.1218   -3.8917   13.6479 O   0  0  0  0  0  0
  -46.6090   -3.1586   13.8290 O   0  0  0  0  0  0
  -51.8420   -7.4005   18.3075 C   0  0  0  0  0  0
  -51.8516   -6.0937   17.5139 C   0  0  0  0  0  0
  -50.7362   -7.4041   19.3634 C   0  0  0  0  0  0
  -51.8039   -4.8807   18.4442 C   0  0  0  0  0  0
  -50.7588   -6.1139   20.1732 C   0  0  0  0  0  0
  -49.5335   -5.9914   21.0199 C   0  0  0  0  0  0
  -50.4896   -3.5222   17.0064 C   0  0  0  0  0  0
  -49.3800   -3.0598   17.7150 C   0  0  0  0  0  0
  -50.3846   -3.7962   15.6421 C   0  0  0  0  0  0
  -48.1642   -2.8725   17.0550 C   0  0  0  0  0  0
  -48.0624   -3.1473   15.6925 C   0  0  0  0  0  0
  -49.1708   -3.6101   14.9804 C   0  0  0  0  0  0
  -46.7697   -2.9395   15.0220 C   0  0  0  0  0  0
  -45.8879   -2.2273   17.1765 C   0  0  0  0  0  0
  -45.6652   -2.4490   15.8710 C   0  0  0  0  0  0
  -44.8248   -1.7280   18.0715 C   0  0  0  0  0  0
  -50.1918   -1.6099   19.4171 C   0  0  0  0  0  0
  -43.4860   -2.0325   17.8102 C   0  0  0  0  0  0
  -45.1521   -0.9481   19.1837 C   0  0  0  0  0  0
  -42.4819   -1.5597   18.6548 C   0  0  0  0  0  0
  -44.1473   -0.4757   20.0289 C   0  0  0  0  0  0
  -42.8119   -0.7816   19.7640 C   0  0  0  0  0  0
  -52.2930   -8.4668   16.7297 H   0  0  0  0  0  0
  -53.8001   -6.1025   17.3526 H   0  0  0  0  0  0
  -50.2054   -8.5184   20.8858 H   0  0  0  0  0  0
  -47.6481   -6.4717   20.9356 H   0  0  0  0  0  0
  -48.2293   -4.1674   13.3917 H   0  0  0  0  0  0
  1 15  1  0  0  0
  1 16  1  0  0  0
  2 15  1  0  0  0
  2 18  1  0  0  0
  3 12  1  0  0  0
  3 34  1  0  0  0
  4 13  1  0  0  0
  4 35  1  0  0  0
  5 14  1  0  0  0
  5 36  1  0  0  0
  6 17  1  0  0  0
  6 37  1  0  0  0
  7 17  2  0  0  0
  8 21  1  0  0  0
  8 25  1  0  0  0
  9 19  1  0  0  0
  9 28  1  0  0  0
 10 23  1  0  0  0
 10 38  1  0  0  0
 11 24  2  0  0  0
 12 13  1  0  0  0
 13 15  1  0  0  0
 14 12  1  0  0  0
 16 14  1  0  0  0
 16 17  1  0  0  0
 18 19  2  0  0  0
 18 20  1  0  0  0
 19 21  1  0  0  0
 20 23  2  0  0  0
 21 22  2  0  0  0
 22 23  1  0  0  0
 22 24  1  0  0  0
 24 26  1  0  0  0
 25 26  2  0  0  0
 25 27  1  0  0  0
 27 29  2  0  0  0
 27 30  1  0  0  0
 29 31  1  0  0  0
 30 32  2  0  0  0
 31 33  2  0  0  0
 32 33  1  0  0  0
M  END
>  <CHROM.0>
57.32374108,61.13104821,63.54537509

>  <CHROM.1>
49.73282274,-76.72919270,-56.26086750,56.42958903,177.21081407,3.92362869
-74.01030079,-151.19142126,-82.89712904,151.61501791,-48.67140046,-4.07252722
17.97122640,-2.88116895,-0.59000694,-1.28663428

>  <Name>
Wogonoside.pdb

>  <RI>
-3.16935e+08

>  <Rbt.Current_Directory>
/root/miniconda3/envs/rdock/share/rxdock-2013.1.1_148c5bd1-0/data/ligands/prepped_ligands/Wogonoside

>  <Rbt.Executable>
rbdock/0.1.0

>  <Rbt.Library>
librxdock.so/0.1.0

>  <Rbt.Parameter_File>
/root/miniconda3/envs/rdock/share/rxdock-2013.1.1_148c5bd1-0/data/scripts/dock.prm

>  <Rbt.Receptor>
def.prm

>  <SCORE>
-11.2514

>  <SCORE.INTER>
-11.6347

>  <SCORE.INTER.CONST>
1

>  <SCORE.INTER.POLAR>
-1.32767

>  <SCORE.INTER.REPUL>
0.17582

>  <SCORE.INTER.ROT>
5

>  <SCORE.INTER.VDW>
-18.3998

>  <SCORE.INTER.norm>
-0.352568

>  <SCORE.INTRA>
1.27848

>  <SCORE.INTRA.DIHEDRAL>
2.73299

>  <SCORE.INTRA.DIHEDRAL.0>
10.6366

>  <SCORE.INTRA.POLAR>
0

>  <SCORE.INTRA.POLAR.0>
0

>  <SCORE.INTRA.REPUL>
0

>  <SCORE.INTRA.REPUL.0>
0

>  <SCORE.INTRA.VDW>
-0.0880102

>  <SCORE.INTRA.VDW.0>
-0.944467

>  <SCORE.INTRA.norm>
0.0387419

>  <SCORE.RESTR>
0.047416

>  <SCORE.RESTR.CAVITY>
0.047416

>  <SCORE.RESTR.norm>
0.00143685

>  <SCORE.SYSTEM>
-0.942513

>  <SCORE.SYSTEM.CONST>
0

>  <SCORE.SYSTEM.DIHEDRAL>
0.054175

>  <SCORE.SYSTEM.POLAR>
-0.00855107

>  <SCORE.SYSTEM.VDW>
-0.940527

>  <SCORE.SYSTEM.norm>
-0.028561

>  <SCORE.heavy>
33

>  <SCORE.norm>
-0.34095

$$$$
Wogonoside.pdb
  RxDock  02242113283D
librxdock.so/0.1.0
 38 41  0  0  0  0  0  0  0  0999 V2000
  -49.8835   -3.4242   17.9007 O   0  0  0  0  0  0
  -49.9642   -1.6072   16.4398 O   0  0  0  0  0  0
  -50.9347   -6.0428   14.9156 O   0  0  0  0  0  0
  -51.4634   -3.1613   14.6181 O   0  0  0  0  0  0
  -51.2330   -6.8176   17.7020 O   0  0  0  0  0  0
  -48.3611   -5.3479   19.0308 O   0  0  0  0  0  0
  -49.9541   -5.1377   20.6471 O   0  0  0  0  0  0
  -45.5997   -0.4547   17.9418 O   0  0  0  0  0  0
  -48.2897   -0.3630   18.2597 O   0  0  0  0  0  0
  -46.2261   -3.0779   13.9146 O   0  0  0  0  0  0
  -43.8569   -2.3965   14.8129 O   0  0  0  0  0  0
  -51.1804   -5.1288   15.9857 C   0  0  0  0  0  0
  -50.6307   -3.7511   15.6151 C   0  0  0  0  0  0
  -50.5059   -5.6793   17.2425 C   0  0  0  0  0  0
  -50.6047   -2.8208   16.8288 C   0  0  0  0  0  0
  -50.4878   -4.6317   18.3484 C   0  0  0  0  0  0
  -49.6070   -5.0597   19.4772 C   0  0  0  0  0  0
  -48.6105   -1.6554   16.2763 C   0  0  0  0  0  0
  -47.7635   -1.0294   17.1917 C   0  0  0  0  0  0
  -48.0770   -2.3383   15.1824 C   0  0  0  0  0  0
  -46.3807   -1.0887   17.0102 C   0  0  0  0  0  0
  -45.8509   -1.7717   15.9170 C   0  0  0  0  0  0
  -46.6956   -2.3992   14.9991 C   0  0  0  0  0  0
  -44.3901   -1.8168   15.7492 C   0  0  0  0  0  0
  -44.2224   -0.5024   17.7915 C   0  0  0  0  0  0
  -43.5928   -1.1208   16.7794 C   0  0  0  0  0  0
  -43.4782    0.2173   18.8445 C   0  0  0  0  0  0
  -48.4196   -1.0929   19.4773 C   0  0  0  0  0  0
  -43.2705   -0.3797   20.0910 C   0  0  0  0  0  0
  -42.9775    1.4986   18.5996 C   0  0  0  0  0  0
  -42.5665    0.2997   21.0850 C   0  0  0  0  0  0
  -42.2736    2.1782   19.5945 C   0  0  0  0  0  0
  -42.0680    1.5783   20.8373 C   0  0  0  0  0  0
  -51.4574   -5.7496   14.1505 H   0  0  0  0  0  0
  -52.3670   -3.1206   14.9745 H   0  0  0  0  0  0
  -50.7169   -7.2395   18.4098 H   0  0  0  0  0  0
  -48.2552   -5.1408   18.0776 H   0  0  0  0  0  0
  -46.3518   -4.0314   14.0301 H   0  0  0  0  0  0
  1 15  1  0  0  0
  1 16  1  0  0  0
  2 15  1  0  0  0
  2 18  1  0  0  0
  3 12  1  0  0  0
  3 34  1  0  0  0
  4 13  1  0  0  0
  4 35  1  0  0  0
  5 14  1  0  0  0
  5 36  1  0  0  0
  6 17  1  0  0  0
  6 37  1  0  0  0
  7 17  2  0  0  0
  8 21  1  0  0  0
  8 25  1  0  0  0
  9 19  1  0  0  0
  9 28  1  0  0  0
 10 23  1  0  0  0
 10 38  1  0  0  0
 11 24  2  0  0  0
 12 13  1  0  0  0
 13 15  1  0  0  0
 14 12  1  0  0  0
 16 14  1  0  0  0
 16 17  1  0  0  0
 18 19  2  0  0  0
 18 20  1  0  0  0
 19 21  1  0  0  0
 20 23  2  0  0  0
 21 22  2  0  0  0
 22 23  1  0  0  0
 22 24  1  0  0  0
 24 26  1  0  0  0
 25 26  2  0  0  0
 25 27  1  0  0  0
 27 29  2  0  0  0
 27 30  1  0  0  0
 29 31  1  0  0  0
 30 32  2  0  0  0
 31 33  2  0  0  0
 32 33  1  0  0  0
M  END
>  <CHROM.0>
-65.98620248,-61.54141538,60.31165566

>  <CHROM.1>
46.59491553,-108.77199195,-65.62850004,57.25719351,171.02040188,-174.41730573
93.64828998,-71.32200439,-64.24312952,79.88536967,-47.40994953,-2.37374682
17.39217251,2.90051854,-0.60894521,-1.60692245

>  <Name>
Wogonoside.pdb

>  <RI>
-3.16935e+08

>  <Rbt.Current_Directory>
/root/miniconda3/envs/rdock/share/rxdock-2013.1.1_148c5bd1-0/data/ligands/prepped_ligands/Wogonoside

>  <Rbt.Executable>
rbdock/0.1.0

>  <Rbt.Library>
librxdock.so/0.1.0

>  <Rbt.Parameter_File>
/root/miniconda3/envs/rdock/share/rxdock-2013.1.1_148c5bd1-0/data/scripts/dock.prm

>  <Rbt.Receptor>
def.prm

>  <SCORE>
-5.79491

>  <SCORE.INTER>
-9.1649

>  <SCORE.INTER.CONST>
1

>  <SCORE.INTER.POLAR>
-1.3848

>  <SCORE.INTER.REPUL>
0.229168

>  <SCORE.INTER.ROT>
5

>  <SCORE.INTER.VDW>
-16.0024

>  <SCORE.INTER.norm>
-0.277724

>  <SCORE.INTRA>
4.37558

>  <SCORE.INTRA.DIHEDRAL>
9.86803

>  <SCORE.INTRA.DIHEDRAL.0>
10.6366

>  <SCORE.INTRA.POLAR>
0

>  <SCORE.INTRA.POLAR.0>
0

>  <SCORE.INTRA.REPUL>
0

>  <SCORE.INTRA.REPUL.0>
0

>  <SCORE.INTRA.VDW>
-0.558437

>  <SCORE.INTRA.VDW.0>
-0.944467

>  <SCORE.INTRA.norm>
0.132593

>  <SCORE.RESTR>
0

>  <SCORE.RESTR.CAVITY>
0

>  <SCORE.RESTR.norm>
0

>  <SCORE.SYSTEM>
-1.00559

>  <SCORE.SYSTEM.CONST>
0

>  <SCORE.SYSTEM.DIHEDRAL>
0.10395

>  <SCORE.SYSTEM.POLAR>
-0.00180643

>  <SCORE.SYSTEM.VDW>
-1.05143

>  <SCORE.SYSTEM.norm>
-0.0304725

>  <SCORE.heavy>
33

>  <SCORE.norm>
-0.175603

$$$$
Wogonoside.pdb
  RxDock  02242113293D
librxdock.so/0.1.0
 38 41  0  0  0  0  0  0  0  0999 V2000
  -46.2216    0.2974   17.5146 O   0  0  0  0  0  0
  -48.2014   -0.1232   16.3547 O   0  0  0  0  0  0
  -43.9810   -1.6185   14.6541 O   0  0  0  0  0  0
  -46.8767   -2.1151   14.8518 O   0  0  0  0  0  0
  -42.8754   -1.1636   17.3044 O   0  0  0  0  0  0
  -45.0737    1.0958   19.9215 O   0  0  0  0  0  0
  -43.4744    1.6481   18.3946 O   0  0  0  0  0  0
  -50.6454   -3.9758   17.7029 O   0  0  0  0  0  0
  -48.6322   -2.2103   18.1217 O   0  0  0  0  0  0
  -51.8482   -1.5564   13.6789 O   0  0  0  0  0  0
  -53.1394   -3.6900   14.4940 O   0  0  0  0  0  0
  -44.7589   -1.5307   15.8491 C   0  0  0  0  0  0
  -46.1719   -1.0599   15.5036 C   0  0  0  0  0  0
  -44.0615   -0.5546   16.7970 C   0  0  0  0  0  0
  -46.9490   -0.6709   16.7621 C   0  0  0  0  0  0
  -44.9681   -0.1990   17.9686 C   0  0  0  0  0  0
  -44.4081    0.9439   18.7516 C   0  0  0  0  0  0
  -49.2159   -1.0101   16.1404 C   0  0  0  0  0  0
  -49.4358   -2.0632   17.0290 C   0  0  0  0  0  0
  -50.0353   -0.8554   15.0214 C   0  0  0  0  0  0
  -50.4785   -2.9615   16.7954 C   0  0  0  0  0  0
  -51.2953   -2.8043   15.6773 C   0  0  0  0  0  0
  -51.0780   -1.7515   14.7860 C   0  0  0  0  0  0
  -52.3856   -3.7665   15.4547 C   0  0  0  0  0  0
  -51.6773   -4.8794   17.5008 C   0  0  0  0  0  0
  -52.5253   -4.8390   16.4604 C   0  0  0  0  0  0
  -51.7628   -5.9334   18.5316 C   0  0  0  0  0  0
  -49.0793   -1.6162   19.3380 C   0  0  0  0  0  0
  -51.9723   -5.5913   19.8704 C   0  0  0  0  0  0
  -51.6353   -7.2779   18.1733 C   0  0  0  0  0  0
  -52.0543   -6.5869   20.8436 C   0  0  0  0  0  0
  -51.7168   -8.2737   19.1474 C   0  0  0  0  0  0
  -51.9267   -7.9279   20.4828 C   0  0  0  0  0  0
  -43.1188   -2.0001   14.8901 H   0  0  0  0  0  0
  -46.4483   -2.2697   13.9928 H   0  0  0  0  0  0
  -42.4800   -0.5583   17.9545 H   0  0  0  0  0  0
  -44.7570    1.8754   20.4259 H   0  0  0  0  0  0
  -52.4876   -2.2770   13.5786 H   0  0  0  0  0  0
  1 15  1  0  0  0
  1 16  1  0  0  0
  2 15  1  0  0  0
  2 18  1  0  0  0
  3 12  1  0  0  0
  3 34  1  0  0  0
  4 13  1  0  0  0
  4 35  1  0  0  0
  5 14  1  0  0  0
  5 36  1  0  0  0
  6 17  1  0  0  0
  6 37  1  0  0  0
  7 17  2  0  0  0
  8 21  1  0  0  0
  8 25  1  0  0  0
  9 19  1  0  0  0
  9 28  1  0  0  0
 10 23  1  0  0  0
 10 38  1  0  0  0
 11 24  2  0  0  0
 12 13  1  0  0  0
 13 15  1  0  0  0
 14 12  1  0  0  0
 16 14  1  0  0  0
 16 17  1  0  0  0
 18 19  2  0  0  0
 18 20  1  0  0  0
 19 21  1  0  0  0
 20 23  2  0  0  0
 21 22  2  0  0  0
 22 23  1  0  0  0
 22 24  1  0  0  0
 24 26  1  0  0  0
 25 26  2  0  0  0
 25 27  1  0  0  0
 27 29  2  0  0  0
 27 30  1  0  0  0
 29 31  1  0  0  0
 30 32  2  0  0  0
 31 33  2  0  0  0
 32 33  1  0  0  0
M  END
>  <CHROM.0>
-59.86021399,-71.38983824,-179.42224274

>  <CHROM.1>
-153.38530361,43.26695531,-174.62708322,-66.57882771,-175.84133338,3.70352985
93.86677746,175.21605053,72.20989353,60.25113850,-48.64363233,-2.44518088
17.11823283,-0.39700391,0.51877881,2.16431171

>  <Name>
Wogonoside.pdb

>  <RI>
-3.16935e+08

>  <Rbt.Current_Directory>
/root/miniconda3/envs/rdock/share/rxdock-2013.1.1_148c5bd1-0/data/ligands/prepped_ligands/Wogonoside

>  <Rbt.Executable>
rbdock/0.1.0

>  <Rbt.Library>
librxdock.so/0.1.0

>  <Rbt.Parameter_File>
/root/miniconda3/envs/rdock/share/rxdock-2013.1.1_148c5bd1-0/data/scripts/dock.prm

>  <Rbt.Receptor>
def.prm

>  <SCORE>
-12.63

>  <SCORE.INTER>
-13.3875

>  <SCORE.INTER.CONST>
1

>  <SCORE.INTER.POLAR>
-1.52341

>  <SCORE.INTER.REPUL>
0.441701

>  <SCORE.INTER.ROT>
5

>  <SCORE.INTER.VDW>
-20.8165

>  <SCORE.INTER.norm>
-0.405683

>  <SCORE.INTRA>
1.58

>  <SCORE.INTRA.DIHEDRAL>
4.4468

>  <SCORE.INTRA.DIHEDRAL.0>
10.6366

>  <SCORE.INTRA.POLAR>
0

>  <SCORE.INTRA.POLAR.0>
0

>  <SCORE.INTRA.REPUL>
0

>  <SCORE.INTRA.REPUL.0>
0

>  <SCORE.INTRA.VDW>
-0.643395

>  <SCORE.INTRA.VDW.0>
-0.944467

>  <SCORE.INTRA.norm>
0.0478789

>  <SCORE.RESTR>
0.0640787

>  <SCORE.RESTR.CAVITY>
0.0640787

>  <SCORE.RESTR.norm>
0.00194178

>  <SCORE.SYSTEM>
-0.886564

>  <SCORE.SYSTEM.CONST>
0

>  <SCORE.SYSTEM.DIHEDRAL>
0.621932

>  <SCORE.SYSTEM.POLAR>
-0.00341368

>  <SCORE.SYSTEM.VDW>
-1.18592

>  <SCORE.SYSTEM.norm>
-0.0268656

>  <SCORE.heavy>
33

>  <SCORE.norm>
-0.382728

$$$$
Wogonoside.pdb
  RxDock  02242113293D
librxdock.so/0.1.0
 38 41  0  0  0  0  0  0  0  0999 V2000
  -46.4844    0.4282   18.0144 O   0  0  0  0  0  0
  -45.4686   -1.1556   16.6354 O   0  0  0  0  0  0
  -43.0000    1.0435   20.1009 O   0  0  0  0  0  0
  -43.3612   -1.4019   18.5007 O   0  0  0  0  0  0
  -45.5451    1.8565   21.2476 O   0  0  0  0  0  0
  -48.8404    1.7087   19.7052 O   0  0  0  0  0  0
  -47.4298    3.0964   18.5743 O   0  0  0  0  0  0
  -49.9352   -2.5922   15.8488 O   0  0  0  0  0  0
  -47.6822   -2.6547   17.3540 O   0  0  0  0  0  0
  -47.7618    0.5193   12.8342 O   0  0  0  0  0  0
  -50.2196   -0.3261   12.4750 O   0  0  0  0  0  0
  -44.2502    0.4115   19.8208 C   0  0  0  0  0  0
  -44.1918   -0.2436   18.4406 C   0  0  0  0  0  0
  -45.3445    1.4772   19.8870 C   0  0  0  0  0  0
  -45.5827   -0.6756   17.9737 C   0  0  0  0  0  0
  -46.6567    0.9389   19.3310 C   0  0  0  0  0  0
  -47.6515    2.0386   19.1464 C   0  0  0  0  0  0
  -46.6010   -1.1216   15.8750 C   0  0  0  0  0  0
  -47.7186   -1.8759   16.2343 C   0  0  0  0  0  0
  -46.6334   -0.3235   14.7307 C   0  0  0  0  0  0
  -48.8695   -1.8295   15.4457 C   0  0  0  0  0  0
  -48.8990   -1.0313   14.3037 C   0  0  0  0  0  0
  -47.7824   -0.2752   13.9413 C   0  0  0  0  0  0
  -50.1242   -1.0025   13.4901 C   0  0  0  0  0  0
  -51.0945   -2.5608   15.0892 C   0  0  0  0  0  0
  -51.2442   -1.8392   13.9667 C   0  0  0  0  0  0
  -52.1757   -3.4225   15.6080 C   0  0  0  0  0  0
  -47.4727   -4.0519   17.1634 C   0  0  0  0  0  0
  -52.3235   -3.6120   16.9848 C   0  0  0  0  0  0
  -53.0567   -4.0522   14.7249 C   0  0  0  0  0  0
  -53.3455   -4.4248   17.4747 C   0  0  0  0  0  0
  -54.0787   -4.8658   15.2154 C   0  0  0  0  0  0
  -54.2231   -5.0518   16.5907 C   0  0  0  0  0  0
  -42.3172    0.3522   20.1205 H   0  0  0  0  0  0
  -42.4537   -1.1051   18.6841 H   0  0  0  0  0  0
  -46.1730    2.5985   21.2644 H   0  0  0  0  0  0
  -48.8101    0.8306   20.1420 H   0  0  0  0  0  0
  -48.3122    0.1395   12.1334 H   0  0  0  0  0  0
  1 15  1  0  0  0
  1 16  1  0  0  0
  2 15  1  0  0  0
  2 18  1  0  0  0
  3 12  1  0  0  0
  3 34  1  0  0  0
  4 13  1  0  0  0
  4 35  1  0  0  0
  5 14  1  0  0  0
  5 36  1  0  0  0
  6 17  1  0  0  0
  6 37  1  0  0  0
  7 17  2  0  0  0
  8 21  1  0  0  0
  8 25  1  0  0  0
  9 19  1  0  0  0
  9 28  1  0  0  0
 10 23  1  0  0  0
 10 38  1  0  0  0
 11 24  2  0  0  0
 12 13  1  0  0  0
 13 15  1  0  0  0
 14 12  1  0  0  0
 16 14  1  0  0  0
 16 17  1  0  0  0
 18 19  2  0  0  0
 18 20  1  0  0  0
 19 21  1  0  0  0
 20 23  2  0  0  0
 21 22  2  0  0  0
 22 23  1  0  0  0
 22 24  1  0  0  0
 24 26  1  0  0  0
 25 26  2  0  0  0
 25 27  1  0  0  0
 27 29  2  0  0  0
 27 30  1  0  0  0
 29 31  1  0  0  0
 30 32  2  0  0  0
 31 33  2  0  0  0
 32 33  1  0  0  0
M  END
>  <CHROM.0>
-67.49922544,63.86259737,-179.80292337

>  <CHROM.1>
-36.11883534,-62.86747543,-62.50632779,-65.95210542,174.06839681,-178.10503594
-101.31271780,147.72748560,110.52476323,33.48385215,-48.18500370,-1.02656595
16.84103623,0.43204688,0.55685982,1.63470006

>  <Name>
Wogonoside.pdb

>  <RI>
-3.16935e+08

>  <Rbt.Current_Directory>
/root/miniconda3/envs/rdock/share/rxdock-2013.1.1_148c5bd1-0/data/ligands/prepped_ligands/Wogonoside

>  <Rbt.Executable>
rbdock/0.1.0

>  <Rbt.Library>
librxdock.so/0.1.0

>  <Rbt.Parameter_File>
/root/miniconda3/envs/rdock/share/rxdock-2013.1.1_148c5bd1-0/data/scripts/dock.prm

>  <Rbt.Receptor>
def.prm

>  <SCORE>
-14.5957

>  <SCORE.INTER>
-16.474

>  <SCORE.INTER.CONST>
1

>  <SCORE.INTER.POLAR>
-1.81061

>  <SCORE.INTER.REPUL>
0.243658

>  <SCORE.INTER.ROT>
5

>  <SCORE.INTER.VDW>
-21.9362

>  <SCORE.INTER.norm>
-0.499211

>  <SCORE.INTRA>
2.83516

>  <SCORE.INTRA.DIHEDRAL>
5.76882

>  <SCORE.INTRA.DIHEDRAL.0>
10.6366

>  <SCORE.INTRA.POLAR>
0

>  <SCORE.INTRA.POLAR.0>
0

>  <SCORE.INTRA.REPUL>
0

>  <SCORE.INTRA.REPUL.0>
0

>  <SCORE.INTRA.VDW>
-0.0492547

>  <SCORE.INTRA.VDW.0>
-0.944467

>  <SCORE.INTRA.norm>
0.0859138

>  <SCORE.RESTR>
0

>  <SCORE.RESTR.CAVITY>
0

>  <SCORE.RESTR.norm>
0

>  <SCORE.SYSTEM>
-0.956921

>  <SCORE.SYSTEM.CONST>
0

>  <SCORE.SYSTEM.DIHEDRAL>
0.215895

>  <SCORE.SYSTEM.POLAR>
-0.00248799

>  <SCORE.SYSTEM.VDW>
-1.05641

>  <SCORE.SYSTEM.norm>
-0.0289976

>  <SCORE.heavy>
33

>  <SCORE.norm>
-0.442295

$$$$
Wogonoside.pdb
  RxDock  02242113293D
librxdock.so/0.1.0
 38 41  0  0  0  0  0  0  0  0999 V2000
  -50.5344   -5.5488   19.1531 O   0  0  0  0  0  0
  -51.7542   -4.0327   17.8664 O   0  0  0  0  0  0
  -52.2607   -8.7558   17.2536 O   0  0  0  0  0  0
  -53.5361   -6.1039   17.1476 O   0  0  0  0  0  0
  -50.9536   -9.1193   19.8251 O   0  0  0  0  0  0
  -48.6668   -5.5979   20.7196 O   0  0  0  0  0  0
  -48.5012   -7.8672   20.5880 O   0  0  0  0  0  0
  -47.2197   -2.5938   17.8804 O   0  0  0  0  0  0
  -49.5181   -3.1175   19.2177 O   0  0  0  0  0  0
  -49.3919   -3.9130   13.7532 O   0  0  0  0  0  0
  -46.8974   -3.1054   13.8514 O   0  0  0  0  0  0
  -52.1571   -7.7439   18.2566 C   0  0  0  0  0  0
  -52.2076   -6.3656   17.5967 C   0  0  0  0  0  0
  -50.8424   -7.9552   19.0079 C   0  0  0  0  0  0
  -51.8097   -5.2654   18.5818 C   0  0  0  0  0  0
  -50.5321   -6.7597   19.8998 C   0  0  0  0  0  0
  -49.1370   -6.8347   20.4300 C   0  0  0  0  0  0
  -50.5990   -3.7700   17.1897 C   0  0  0  0  0  0
  -49.4700   -3.3086   17.8676 C   0  0  0  0  0  0
  -50.5547   -3.9670   15.8088 C   0  0  0  0  0  0
  -48.2957   -3.0451   17.1603 C   0  0  0  0  0  0
  -48.2543   -3.2431   15.7815 C   0  0  0  0  0  0
  -49.3823   -3.7048   15.0999 C   0  0  0  0  0  0
  -47.0043   -2.9559   15.0610 C   0  0  0  0  0  0
  -46.0374   -2.3302   17.2059 C   0  0  0  0  0  0
  -45.8742   -2.4741   15.8808 C   0  0  0  0  0  0
  -44.9466   -1.8435   18.0741 C   0  0  0  0  0  0
  -50.1541   -1.9285   19.6803 C   0  0  0  0  0  0
  -43.6133   -2.0625   17.7165 C   0  0  0  0  0  0
  -45.2420   -1.1609   19.2570 C   0  0  0  0  0  0
  -42.5831   -1.6016   18.5359 C   0  0  0  0  0  0
  -44.2110   -0.7004   20.0768 C   0  0  0  0  0  0
  -42.8813   -0.9207   19.7158 C   0  0  0  0  0  0
  -53.1339   -8.6695   16.8357 H   0  0  0  0  0  0
  -53.5550   -5.1986   16.7935 H   0  0  0  0  0  0
  -50.0882   -9.2824   20.2370 H   0  0  0  0  0  0
  -49.2545   -4.8915   20.3757 H   0  0  0  0  0  0
  -48.5063   -4.1485   13.4396 H   0  0  0  0  0  0
  1 15  1  0  0  0
  1 16  1  0  0  0
  2 15  1  0  0  0
  2 18  1  0  0  0
  3 12  1  0  0  0
  3 34  1  0  0  0
  4 13  1  0  0  0
  4 35  1  0  0  0
  5 14  1  0  0  0
  5 36  1  0  0  0
  6 17  1  0  0  0
  6 37  1  0  0  0
  7 17  2  0  0  0
  8 21  1  0  0  0
  8 25  1  0  0  0
  9 19  1  0  0  0
  9 28  1  0  0  0
 10 23  1  0  0  0
 10 38  1  0  0  0
 11 24  2  0  0  0
 12 13  1  0  0  0
 13 15  1  0  0  0
 14 12  1  0  0  0
 16 14  1  0  0  0
 16 17  1  0  0  0
 18 19  2  0  0  0
 18 20  1  0  0  0
 19 21  1  0  0  0
 20 23  2  0  0  0
 21 22  2  0  0  0
 22 23  1  0  0  0
 22 24  1  0  0  0
 24 26  1  0  0  0
 25 26  2  0  0  0
 25 27  1  0  0  0
 27 29  2  0  0  0
 27 30  1  0  0  0
 29 31  1  0  0  0
 30 32  2  0  0  0
 31 33  2  0  0  0
 32 33  1  0  0  0
M  END
>  <CHROM.0>
-47.97380598,-64.46858383,-60.93048341

>  <CHROM.1>
37.02541405,-78.46864691,-63.79751926,175.85286603,175.29785465,169.62223826
-78.52735164,-150.89905523,34.93620555,153.00396061,-48.77076775,-4.34814274
17.93440939,-2.79351068,-0.58488773,-1.09352395

>  <Name>
Wogonoside.pdb

>  <RI>
-3.16935e+08

>  <Rbt.Current_Directory>
/root/miniconda3/envs/rdock/share/rxdock-2013.1.1_148c5bd1-0/data/ligands/prepped_ligands/Wogonoside

>  <Rbt.Executable>
rbdock/0.1.0

>  <Rbt.Library>
librxdock.so/0.1.0

>  <Rbt.Parameter_File>
/root/miniconda3/envs/rdock/share/rxdock-2013.1.1_148c5bd1-0/data/scripts/dock.prm

>  <Rbt.Receptor>
def.prm

>  <SCORE>
-14.5738

>  <SCORE.INTER>
-12.5353

>  <SCORE.INTER.CONST>
1

>  <SCORE.INTER.POLAR>
-1.53089

>  <SCORE.INTER.REPUL>
0.230241

>  <SCORE.INTER.ROT>
5

>  <SCORE.INTER.VDW>
-18.8814

>  <SCORE.INTER.norm>
-0.379857

>  <SCORE.INTRA>
-1.19993

>  <SCORE.INTRA.DIHEDRAL>
5.54025

>  <SCORE.INTRA.DIHEDRAL.0>
10.6366

>  <SCORE.INTRA.POLAR>
-1.26261

>  <SCORE.INTRA.POLAR.0>
0

>  <SCORE.INTRA.REPUL>
0

>  <SCORE.INTRA.REPUL.0>
0

>  <SCORE.INTRA.VDW>
0.322809

>  <SCORE.INTRA.VDW.0>
-0.944467

>  <SCORE.INTRA.norm>
-0.0363615

>  <SCORE.RESTR>
0

>  <SCORE.RESTR.CAVITY>
0

>  <SCORE.RESTR.norm>
0

>  <SCORE.SYSTEM>
-0.838648

>  <SCORE.SYSTEM.CONST>
0

>  <SCORE.SYSTEM.DIHEDRAL>
0.438077

>  <SCORE.SYSTEM.VDW>
-1.05769

>  <SCORE.SYSTEM.norm>
-0.0254136

>  <SCORE.heavy>
33

>  <SCORE.norm>
-0.441632

$$$$
Wogonoside.pdb
  RxDock  02242113293D
librxdock.so/0.1.0
 38 41  0  0  0  0  0  0  0  0999 V2000
  -46.4242   -1.1711   17.7219 O   0  0  0  0  0  0
  -47.8275   -1.8355   15.9809 O   0  0  0  0  0  0
  -43.0653   -1.9070   15.4749 O   0  0  0  0  0  0
  -45.6430   -3.1234   14.7356 O   0  0  0  0  0  0
  -42.8642   -1.7045   18.3683 O   0  0  0  0  0  0
  -46.2532   -0.5584   20.4067 O   0  0  0  0  0  0
  -44.4826    0.5965   19.5547 O   0  0  0  0  0  0
  -51.8171   -4.4192   16.1831 O   0  0  0  0  0  0
  -49.4973   -3.7804   14.9355 O   0  0  0  0  0  0
  -50.8179   -1.1254   19.5956 O   0  0  0  0  0  0
  -52.9940   -2.5910   19.6284 O   0  0  0  0  0  0
  -44.1175   -2.2388   16.3823 C   0  0  0  0  0  0
  -45.4661   -2.0706   15.6819 C   0  0  0  0  0  0
  -44.0015   -1.3190   17.5981 C   0  0  0  0  0  0
  -46.6208   -2.1277   16.6831 C   0  0  0  0  0  0
  -45.2435   -1.4231   18.4743 C   0  0  0  0  0  0
  -45.2593   -0.3470   19.5110 C   0  0  0  0  0  0
  -48.9945   -2.1542   16.6117 C   0  0  0  0  0  0
  -49.8386   -3.1340   16.0876 C   0  0  0  0  0  0
  -49.3392   -1.4904   17.7899 C   0  0  0  0  0  0
  -51.0288   -3.4486   16.7457 C   0  0  0  0  0  0
  -51.3702   -2.7842   17.9222 C   0  0  0  0  0  0
  -50.5278   -1.8032   18.4495 C   0  0  0  0  0  0
  -52.6311   -3.1344   18.5940 C   0  0  0  0  0  0
  -53.0020   -4.7578   16.8181 C   0  0  0  0  0  0
  -53.4437   -4.1864   17.9502 C   0  0  0  0  0  0
  -53.7760   -5.8073   16.1251 C   0  0  0  0  0  0
  -49.4660   -3.0015   13.7420 C   0  0  0  0  0  0
  -53.7243   -7.1300   16.5736 C   0  0  0  0  0  0
  -54.5642   -5.4829   15.0179 C   0  0  0  0  0  0
  -54.4564   -8.1208   15.9198 C   0  0  0  0  0  0
  -55.2960   -6.4746   14.3637 C   0  0  0  0  0  0
  -55.2421   -7.7938   14.8151 C   0  0  0  0  0  0
  -42.2337   -2.2398   15.8522 H   0  0  0  0  0  0
  -46.5225   -3.0160   14.3354 H   0  0  0  0  0  0
  -42.9849   -2.6296   18.6422 H   0  0  0  0  0  0
  -46.7817   -1.3555   20.1878 H   0  0  0  0  0  0
  -50.1370   -0.4614   19.7791 H   0  0  0  0  0  0
  1 15  1  0  0  0
  1 16  1  0  0  0
  2 15  1  0  0  0
  2 18  1  0  0  0
  3 12  1  0  0  0
  3 34  1  0  0  0
  4 13  1  0  0  0
  4 35  1  0  0  0
  5 14  1  0  0  0
  5 36  1  0  0  0
  6 17  1  0  0  0
  6 37  1  0  0  0
  7 17  2  0  0  0
  8 21  1  0  0  0
  8 25  1  0  0  0
  9 19  1  0  0  0
  9 28  1  0  0  0
 10 23  1  0  0  0
 10 38  1  0  0  0
 11 24  2  0  0  0
 12 13  1  0  0  0
 13 15  1  0  0  0
 14 12  1  0  0  0
 16 14  1  0  0  0
 16 17  1  0  0  0
 18 19  2  0  0  0
 18 20  1  0  0  0
 19 21  1  0  0  0
 20 23  2  0  0  0
 21 22  2  0  0  0
 22 23  1  0  0  0
 22 24  1  0  0  0
 24 26  1  0  0  0
 25 26  2  0  0  0
 25 27  1  0  0  0
 27 29  2  0  0  0
 27 30  1  0  0  0
 29 31  1  0  0  0
 30 32  2  0  0  0
 31 33  2  0  0  0
 32 33  1  0  0  0
M  END
>  <CHROM.0>
-56.12989140,66.92567926,-174.47073122

>  <CHROM.1>
-75.29244784,-114.97934292,-165.31741923,177.44845419,-59.25067009,178.54465042
-66.45200803,2.42232200,69.86759925,100.37457485,-49.16242972,-2.99449540
17.00598411,0.37363450,0.29980969,0.98470239

>  <Name>
Wogonoside.pdb

>  <RI>
-3.16935e+08

>  <Rbt.Current_Directory>
/root/miniconda3/envs/rdock/share/rxdock-2013.1.1_148c5bd1-0/data/ligands/prepped_ligands/Wogonoside

>  <Rbt.Executable>
rbdock/0.1.0

>  <Rbt.Library>
librxdock.so/0.1.0

>  <Rbt.Parameter_File>
/root/miniconda3/envs/rdock/share/rxdock-2013.1.1_148c5bd1-0/data/scripts/dock.prm

>  <Rbt.Receptor>
def.prm

>  <SCORE>
-10.2409

>  <SCORE.INTER>
-12.1952

>  <SCORE.INTER.CONST>
1

>  <SCORE.INTER.POLAR>
0

>  <SCORE.INTER.REPUL>
0.078694

>  <SCORE.INTER.ROT>
5

>  <SCORE.INTER.VDW>
-22.9886

>  <SCORE.INTER.norm>
-0.369551

>  <SCORE.INTRA>
2.90399

>  <SCORE.INTRA.DIHEDRAL>
5.05661

>  <SCORE.INTRA.DIHEDRAL.0>
10.6366

>  <SCORE.INTRA.POLAR>
-0.0229706

>  <SCORE.INTRA.POLAR.0>
0

>  <SCORE.INTRA.REPUL>
0

>  <SCORE.INTRA.REPUL.0>
0

>  <SCORE.INTRA.VDW>
0.453789

>  <SCORE.INTRA.VDW.0>
-0.944467

>  <SCORE.INTRA.norm>
0.0879998

>  <SCORE.RESTR>
0

>  <SCORE.RESTR.CAVITY>
0

>  <SCORE.RESTR.norm>
0

>  <SCORE.SYSTEM>
-0.949749

>  <SCORE.SYSTEM.CONST>
0

>  <SCORE.SYSTEM.DIHEDRAL>
0.338762

>  <SCORE.SYSTEM.POLAR>
-0.0130161

>  <SCORE.SYSTEM.VDW>
-1.07488

>  <SCORE.SYSTEM.norm>
-0.0287803

>  <SCORE.heavy>
33

>  <SCORE.norm>
-0.310331

$$$$
Wogonoside.pdb
  RxDock  02242113293D
librxdock.so/0.1.0
 38 41  0  0  0  0  0  0  0  0999 V2000
  -50.2337   -3.6766   17.7847 O   0  0  0  0  0  0
  -50.4891   -1.6528   16.6528 O   0  0  0  0  0  0
  -52.0248   -5.7635   14.7334 O   0  0  0  0  0  0
  -52.4179   -2.8552   14.9749 O   0  0  0  0  0  0
  -51.8087   -6.9523   17.3779 O   0  0  0  0  0  0
  -48.5241   -5.3253   18.4872 O   0  0  0  0  0  0
  -49.9568   -6.1698   20.0457 O   0  0  0  0  0  0
  -45.9275   -0.6126   17.5145 O   0  0  0  0  0  0
  -48.5361   -0.5015   18.2415 O   0  0  0  0  0  0
  -47.2041   -3.0672   13.5348 O   0  0  0  0  0  0
  -44.7144   -2.4499   14.0866 O   0  0  0  0  0  0
  -51.9930   -5.0197   15.9526 C   0  0  0  0  0  0
  -51.4420   -3.6196   15.6809 C   0  0  0  0  0  0
  -51.1173   -5.7806   16.9485 C   0  0  0  0  0  0
  -51.1148   -2.8908   16.9851 C   0  0  0  0  0  0
  -50.8119   -4.9189   18.1671 C   0  0  0  0  0  0
  -49.7523   -5.5456   19.0143 C   0  0  0  0  0  0
  -49.1769   -1.7107   16.2834 C   0  0  0  0  0  0
  -48.1899   -1.1315   17.0818 C   0  0  0  0  0  0
  -48.8279   -2.3562   15.0964 C   0  0  0  0  0  0
  -46.8519   -1.2000   16.6897 C   0  0  0  0  0  0
  -46.5063   -1.8456   15.5039 C   0  0  0  0  0  0
  -47.4915   -2.4263   14.7026 C   0  0  0  0  0  0
  -45.0890   -1.9014   15.1141 C   0  0  0  0  0  0
  -44.5900   -0.6708   17.1545 C   0  0  0  0  0  0
  -44.1324   -1.2562   16.0360 C   0  0  0  0  0  0
  -43.6820   -0.0020   18.1079 C   0  0  0  0  0  0
  -48.9749    0.8508   18.1367 C   0  0  0  0  0  0
  -43.8917    1.3347   18.4581 C   0  0  0  0  0  0
  -42.6090   -0.7025   18.6651 C   0  0  0  0  0  0
  -43.0349    1.9658   19.3595 C   0  0  0  0  0  0
  -41.7516   -0.0706   19.5665 C   0  0  0  0  0  0
  -41.9649    1.2638   19.9139 C   0  0  0  0  0  0
  -51.1090   -5.8626   14.4236 H   0  0  0  0  0  0
  -52.0226   -1.9916   14.7670 H   0  0  0  0  0  0
  -51.9820   -7.5037   16.5962 H   0  0  0  0  0  0
  -48.5609   -4.7364   17.7033 H   0  0  0  0  0  0
  -48.0179   -3.2751   13.0523 H   0  0  0  0  0  0
  1 15  1  0  0  0
  1 16  1  0  0  0
  2 15  1  0  0  0
  2 18  1  0  0  0
  3 12  1  0  0  0
  3 34  1  0  0  0
  4 13  1  0  0  0
  4 35  1  0  0  0
  5 14  1  0  0  0
  5 36  1  0  0  0
  6 17  1  0  0  0
  6 37  1  0  0  0
  7 17  2  0  0  0
  8 21  1  0  0  0
  8 25  1  0  0  0
  9 19  1  0  0  0
  9 28  1  0  0  0
 10 23  1  0  0  0
 10 38  1  0  0  0
 11 24  2  0  0  0
 12 13  1  0  0  0
 13 15  1  0  0  0
 14 12  1  0  0  0
 16 14  1  0  0  0
 16 17  1  0  0  0
 18 19  2  0  0  0
 18 20  1  0  0  0
 19 21  1  0  0  0
 20 23  2  0  0  0
 21 22  2  0  0  0
 22 23  1  0  0  0
 22 24  1  0  0  0
 24 26  1  0  0  0
 25 26  2  0  0  0
 25 27  1  0  0  0
 27 29  2  0  0  0
 27 30  1  0  0  0
 29 31  1  0  0  0
 30 32  2  0  0  0
 31 33  2  0  0  0
 32 33  1  0  0  0
M  END
>  <CHROM.0>
176.63851268,65.25519173,-179.64693103

>  <CHROM.1>
42.81195157,-113.71494475,63.25200507,-176.53248503,60.30541842,-174.78574400
-83.14811510,9.11056549,-40.03687462,-54.88347293,-47.88361784,-2.43190942
17.00046078,3.09449371,-0.60046765,-1.37982999

>  <Name>
Wogonoside.pdb

>  <RI>
-3.16935e+08

>  <Rbt.Current_Directory>
/root/miniconda3/envs/rdock/share/rxdock-2013.1.1_148c5bd1-0/data/ligands/prepped_ligands/Wogonoside

>  <Rbt.Executable>
rbdock/0.1.0

>  <Rbt.Library>
librxdock.so/0.1.0

>  <Rbt.Parameter_File>
/root/miniconda3/envs/rdock/share/rxdock-2013.1.1_148c5bd1-0/data/scripts/dock.prm

>  <Rbt.Receptor>
def.prm

>  <SCORE>
-10.4069

>  <SCORE.INTER>
-11.4701

>  <SCORE.INTER.CONST>
1

>  <SCORE.INTER.POLAR>
-1.00041

>  <SCORE.INTER.REPUL>
0.0129871

>  <SCORE.INTER.ROT>
5

>  <SCORE.INTER.VDW>
-18.5337

>  <SCORE.INTER.norm>
-0.347579

>  <SCORE.INTRA>
2.0728

>  <SCORE.INTRA.DIHEDRAL>
4.32878

>  <SCORE.INTRA.DIHEDRAL.0>
10.6366

>  <SCORE.INTRA.POLAR>
-0.175808

>  <SCORE.INTRA.POLAR.0>
0

>  <SCORE.INTRA.REPUL>
0

>  <SCORE.INTRA.REPUL.0>
0

>  <SCORE.INTRA.VDW>
0.506158

>  <SCORE.INTRA.VDW.0>
-0.944467

>  <SCORE.INTRA.norm>
0.0628122

>  <SCORE.RESTR>
0

>  <SCORE.RESTR.CAVITY>
0

>  <SCORE.RESTR.norm>
0

>  <SCORE.SYSTEM>
-1.00957

>  <SCORE.SYSTEM.CONST>
0

>  <SCORE.SYSTEM.DIHEDRAL>
0.165927

>  <SCORE.SYSTEM.POLAR>
-0.00287065

>  <SCORE.SYSTEM.VDW>
-1.08277

>  <SCORE.SYSTEM.norm>
-0.0305929

>  <SCORE.heavy>
33

>  <SCORE.norm>
-0.31536

$$$$
Wogonoside.pdb
  RxDock  02242113293D
librxdock.so/0.1.0
 38 41  0  0  0  0  0  0  0  0999 V2000
  -48.3739   -1.8860   17.1254 O   0  0  0  0  0  0
  -47.1919   -3.7975   16.5001 O   0  0  0  0  0  0
  -45.0264    0.4666   16.7609 O   0  0  0  0  0  0
  -44.7667   -2.4531   17.0412 O   0  0  0  0  0  0
  -47.3041    1.4067   18.3042 O   0  0  0  0  0  0
  -50.7068   -0.8685   18.2629 O   0  0  0  0  0  0
  -50.0012    0.8420   16.9320 O   0  0  0  0  0  0
  -51.4561   -5.9052   16.4191 O   0  0  0  0  0  0
  -49.7846   -3.9597   15.5436 O   0  0  0  0  0  0
  -47.9119   -7.5839   19.2674 O   0  0  0  0  0  0
  -50.2919   -8.6832   19.1623 O   0  0  0  0  0  0
  -45.9441   -0.3866   17.4469 C   0  0  0  0  0  0
  -45.9782   -1.7533   16.7623 C   0  0  0  0  0  0
  -47.3186    0.2826   17.4259 C   0  0  0  0  0  0
  -47.1472   -2.5982   17.2709 C   0  0  0  0  0  0
  -48.3982   -0.6868   17.8903 C   0  0  0  0  0  0
  -49.7621   -0.1367   17.6251 C   0  0  0  0  0  0
  -48.0304   -4.7783   16.9434 C   0  0  0  0  0  0
  -49.3379   -4.8630   16.4634 C   0  0  0  0  0  0
  -47.5689   -5.6999   17.8842 C   0  0  0  0  0  0
  -50.1829   -5.8729   16.9268 C   0  0  0  0  0  0
  -49.7191   -6.7920   17.8661 C   0  0  0  0  0  0
  -48.4112   -6.7101   18.3485 C   0  0  0  0  0  0
  -50.6314   -7.8449   18.3384 C   0  0  0  0  0  0
  -52.3160   -6.9013   16.8555 C   0  0  0  0  0  0
  -51.9906   -7.8384   17.7606 C   0  0  0  0  0  0
  -53.6620   -6.8397   16.2514 C   0  0  0  0  0  0
  -50.8404   -3.0919   15.9493 C   0  0  0  0  0  0
  -54.3742   -8.0160   16.0013 C   0  0  0  0  0  0
  -54.2305   -5.6051   15.9275 C   0  0  0  0  0  0
  -55.6461   -7.9576   15.4320 C   0  0  0  0  0  0
  -55.5028   -5.5471   15.3574 C   0  0  0  0  0  0
  -56.2106   -6.7238   15.1098 C   0  0  0  0  0  0
  -44.1582    0.0298   16.7635 H   0  0  0  0  0  0
  -44.8006   -3.3020   16.5685 H   0  0  0  0  0  0
  -48.1629    1.8567   18.2324 H   0  0  0  0  0  0
  -51.6078   -0.5051   18.1255 H   0  0  0  0  0  0
  -48.6286   -8.0839   19.6851 H   0  0  0  0  0  0
  1 15  1  0  0  0
  1 16  1  0  0  0
  2 15  1  0  0  0
  2 18  1  0  0  0
  3 12  1  0  0  0
  3 34  1  0  0  0
  4 13  1  0  0  0
  4 35  1  0  0  0
  5 14  1  0  0  0
  5 36  1  0  0  0
  6 17  1  0  0  0
  6 37  1  0  0  0
  7 17  2  0  0  0
  8 21  1  0  0  0
  8 25  1  0  0  0
  9 19  1  0  0  0
  9 28  1  0  0  0
 10 23  1  0  0  0
 10 38  1  0  0  0
 11 24  2  0  0  0
 12 13  1  0  0  0
 13 15  1  0  0  0
 14 12  1  0  0  0
 16 14  1  0  0  0
 16 17  1  0  0  0
 18 19  2  0  0  0
 18 20  1  0  0  0
 19 21  1  0  0  0
 20 23  2  0  0  0
 21 22  2  0  0  0
 22 23  1  0  0  0
 22 24  1  0  0  0
 24 26  1  0  0  0
 25 26  2  0  0  0
 25 27  1  0  0  0
 27 29  2  0  0  0
 27 30  1  0  0  0
 29 31  1  0  0  0
 30 32  2  0  0  0
 31 33  2  0  0  0
 32 33  1  0  0  0
M  END
>  <CHROM.0>
66.84789904,64.72680942,62.96041546

>  <CHROM.1>
-69.98380097,92.88415625,-57.54893775,-177.92938675,176.09976287,-1.69113632
-115.52783024,165.18451010,72.61582797,146.68464455,-49.74767390,-4.05870506
17.08817605,0.76540162,-0.26699807,-0.14621696

>  <Name>
Wogonoside.pdb

>  <RI>
-3.16935e+08

>  <Rbt.Current_Directory>
/root/miniconda3/envs/rdock/share/rxdock-2013.1.1_148c5bd1-0/data/ligands/prepped_ligands/Wogonoside

>  <Rbt.Executable>
rbdock/0.1.0

>  <Rbt.Library>
librxdock.so/0.1.0

>  <Rbt.Parameter_File>
/root/miniconda3/envs/rdock/share/rxdock-2013.1.1_148c5bd1-0/data/scripts/dock.prm

>  <Rbt.Receptor>
def.prm

>  <SCORE>
-17.5951

>  <SCORE.INTER>
-16.6416

>  <SCORE.INTER.CONST>
1

>  <SCORE.INTER.POLAR>
-0.889497

>  <SCORE.INTER.REPUL>
0

>  <SCORE.INTER.ROT>
5

>  <SCORE.INTER.VDW>
-24.0174

>  <SCORE.INTER.norm>
-0.504292

>  <SCORE.INTRA>
-0.0589964

>  <SCORE.INTRA.DIHEDRAL>
1.44298

>  <SCORE.INTRA.DIHEDRAL.0>
10.6366

>  <SCORE.INTRA.POLAR>
-0.00937072

>  <SCORE.INTRA.POLAR.0>
0

>  <SCORE.INTRA.REPUL>
0

>  <SCORE.INTRA.REPUL.0>
0

>  <SCORE.INTRA.VDW>
-0.748625

>  <SCORE.INTRA.VDW.0>
-0.944467

>  <SCORE.INTRA.norm>
-0.00178777

>  <SCORE.RESTR>
0

>  <SCORE.RESTR.CAVITY>
0

>  <SCORE.RESTR.norm>
0

>  <SCORE.SYSTEM>
-0.894427

>  <SCORE.SYSTEM.CONST>
0

>  <SCORE.SYSTEM.DIHEDRAL>
0.238583

>  <SCORE.SYSTEM.POLAR>
-0.00746809

>  <SCORE.SYSTEM.VDW>
-0.988327

>  <SCORE.SYSTEM.norm>
-0.0271038

>  <SCORE.heavy>
33

>  <SCORE.norm>
-0.533184

$$$$
Wogonoside.pdb
  RxDock  02242113293D
librxdock.so/0.1.0
 38 41  0  0  0  0  0  0  0  0999 V2000
  -50.9579   -5.0624   19.1761 O   0  0  0  0  0  0
  -52.0859   -3.0273   19.0082 O   0  0  0  0  0  0
  -52.9383   -6.5825   15.9141 O   0  0  0  0  0  0
  -54.0223   -4.2570   17.3590 O   0  0  0  0  0  0
  -51.6210   -8.3784   17.7831 O   0  0  0  0  0  0
  -49.6119   -8.2059   19.8470 O   0  0  0  0  0  0
  -48.6471   -6.1957   19.3749 O   0  0  0  0  0  0
  -47.5070   -1.8741   18.4280 O   0  0  0  0  0  0
  -49.4715   -2.9991   19.9182 O   0  0  0  0  0  0
  -50.7928   -0.7699   15.0402 O   0  0  0  0  0  0
  -48.2496   -0.1701   14.8026 O   0  0  0  0  0  0
  -52.7472   -6.3045   17.3022 C   0  0  0  0  0  0
  -52.7091   -4.7913   17.5181 C   0  0  0  0  0  0
  -51.4395   -6.9639   17.7412 C   0  0  0  0  0  0
  -52.2184   -4.4450   18.9246 C   0  0  0  0  0  0
  -51.0307   -6.4823   19.1275 C   0  0  0  0  0  0
  -49.6365   -6.9099   19.4537 C   0  0  0  0  0  0
  -51.0997   -2.4599   18.2552 C   0  0  0  0  0  0
  -49.7809   -2.4439   18.7108 C   0  0  0  0  0  0
  -51.4210   -1.8934   17.0210 C   0  0  0  0  0  0
  -48.7836   -1.8598   17.9279 C   0  0  0  0  0  0
  -49.1075   -1.2952   16.6956 C   0  0  0  0  0  0
  -50.4262   -1.3095   16.2367 C   0  0  0  0  0  0
  -48.0370   -0.6850   15.8920 C   0  0  0  0  0  0
  -46.4943   -1.3075   17.6694 C   0  0  0  0  0  0
  -46.6797   -0.7272   16.4728 C   0  0  0  0  0  0
  -45.1621   -1.3707   18.3035 C   0  0  0  0  0  0
  -49.8958   -2.2936   21.0821 C   0  0  0  0  0  0
  -45.0284   -1.1636   19.6792 C   0  0  0  0  0  0
  -44.0289   -1.6385   17.5312 C   0  0  0  0  0  0
  -43.7703   -1.2245   20.2781 C   0  0  0  0  0  0
  -42.7703   -1.6989   18.1307 C   0  0  0  0  0  0
  -42.6412   -1.4920   19.5045 C   0  0  0  0  0  0
  -52.7610   -7.5279   15.7749 H   0  0  0  0  0  0
  -53.9738   -3.3003   17.5252 H   0  0  0  0  0  0
  -50.7529   -8.7895   17.9337 H   0  0  0  0  0  0
  -50.5106   -8.5986   19.8745 H   0  0  0  0  0  0
  -50.1421   -0.1137   14.7500 H   0  0  0  0  0  0
  1 15  1  0  0  0
  1 16  1  0  0  0
  2 15  1  0  0  0
  2 18  1  0  0  0
  3 12  1  0  0  0
  3 34  1  0  0  0
  4 13  1  0  0  0
  4 35  1  0  0  0
  5 14  1  0  0  0
  5 36  1  0  0  0
  6 17  1  0  0  0
  6 37  1  0  0  0
  7 17  2  0  0  0
  8 21  1  0  0  0
  8 25  1  0  0  0
  9 19  1  0  0  0
  9 28  1  0  0  0
 10 23  1  0  0  0
 10 38  1  0  0  0
 11 24  2  0  0  0
 12 13  1  0  0  0
 13 15  1  0  0  0
 14 12  1  0  0  0
 16 14  1  0  0  0
 16 17  1  0  0  0
 18 19  2  0  0  0
 18 20  1  0  0  0
 19 21  1  0  0  0
 20 23  2  0  0  0
 21 22  2  0  0  0
 22 23  1  0  0  0
 22 24  1  0  0  0
 24 26  1  0  0  0
 25 26  2  0  0  0
 25 27  1  0  0  0
 27 29  2  0  0  0
 27 30  1  0  0  0
 29 31  1  0  0  0
 30 32  2  0  0  0
 31 33  2  0  0  0
 32 33  1  0  0  0
M  END
>  <CHROM.0>
57.61783990,-178.07557960,-135.21258365

>  <CHROM.1>
52.42957679,-81.84627458,167.53435151,178.46999235,171.74488224,178.02452985
-72.27088858,157.93721796,161.39794073,-39.15689920,-49.25540686,-3.39870990
18.06160029,-2.63001684,-0.35263907,-0.51694184

>  <Name>
Wogonoside.pdb

>  <RI>
-3.16935e+08

>  <Rbt.Current_Directory>
/root/miniconda3/envs/rdock/share/rxdock-2013.1.1_148c5bd1-0/data/ligands/prepped_ligands/Wogonoside

>  <Rbt.Executable>
rbdock/0.1.0

>  <Rbt.Library>
librxdock.so/0.1.0

>  <Rbt.Parameter_File>
/root/miniconda3/envs/rdock/share/rxdock-2013.1.1_148c5bd1-0/data/scripts/dock.prm

>  <Rbt.Receptor>
def.prm

>  <SCORE>
-14.4767

>  <SCORE.INTER>
-17.3567

>  <SCORE.INTER.CONST>
1

>  <SCORE.INTER.POLAR>
-2.68426

>  <SCORE.INTER.REPUL>
0

>  <SCORE.INTER.ROT>
5

>  <SCORE.INTER.VDW>
-18.6302

>  <SCORE.INTER.norm>
-0.52596

>  <SCORE.INTRA>
1.81829

>  <SCORE.INTRA.DIHEDRAL>
3.64406

>  <SCORE.INTRA.DIHEDRAL.0>
10.6366

>  <SCORE.INTRA.POLAR>
-0.0151757

>  <SCORE.INTRA.POLAR.0>
0

>  <SCORE.INTRA.REPUL>
0

>  <SCORE.INTRA.REPUL.0>
0

>  <SCORE.INTRA.VDW>
0.0478574

>  <SCORE.INTRA.VDW.0>
-0.944467

>  <SCORE.INTRA.norm>
0.0550997

>  <SCORE.RESTR>
0

>  <SCORE.RESTR.CAVITY>
0

>  <SCORE.RESTR.norm>
0

>  <SCORE.SYSTEM>
1.06175

>  <SCORE.SYSTEM.CONST>
0

>  <SCORE.SYSTEM.DIHEDRAL>
3.08142

>  <SCORE.SYSTEM.POLAR>
-0.000341179

>  <SCORE.SYSTEM.VDW>
-0.477803

>  <SCORE.SYSTEM.norm>
0.0321741

>  <SCORE.heavy>
33

>  <SCORE.norm>
-0.438687

$$$$
Wogonoside.pdb
  RxDock  02242113303D
librxdock.so/0.1.0
 38 41  0  0  0  0  0  0  0  0999 V2000
  -51.4381   -5.3461   18.1910 O   0  0  0  0  0  0
  -51.8235   -3.1222   17.6012 O   0  0  0  0  0  0
  -53.6647   -6.7132   15.0214 O   0  0  0  0  0  0
  -53.9832   -3.9461   15.9768 O   0  0  0  0  0  0
  -53.0959   -8.4720   17.2657 O   0  0  0  0  0  0
  -51.1934   -8.6946   19.2093 O   0  0  0  0  0  0
  -49.6730   -7.0104   18.9940 O   0  0  0  0  0  0
  -47.1679   -2.2020   17.9340 O   0  0  0  0  0  0
  -49.6230   -2.3186   19.0761 O   0  0  0  0  0  0
  -49.1061   -3.7146   13.7570 O   0  0  0  0  0  0
  -46.5512   -3.1827   14.0282 O   0  0  0  0  0  0
  -53.4532   -6.2682   16.3623 C   0  0  0  0  0  0
  -52.9279   -4.8324   16.3456 C   0  0  0  0  0  0
  -52.4566   -7.2195   17.0250 C   0  0  0  0  0  0
  -52.4123   -4.4156   17.7238 C   0  0  0  0  0  0
  -51.9727   -6.6542   18.3544 C   0  0  0  0  0  0
  -50.8131   -7.4372   18.8792 C   0  0  0  0  0  0
  -50.5892   -3.0646   17.0226 C   0  0  0  0  0  0
  -49.4779   -2.6600   17.7631 C   0  0  0  0  0  0
  -50.4459   -3.4148   15.6794 C   0  0  0  0  0  0
  -48.2219   -2.6071   17.1562 C   0  0  0  0  0  0
  -48.0817   -2.9578   15.8148 C   0  0  0  0  0  0
  -49.1918   -3.3631   15.0708 C   0  0  0  0  0  0
  -46.7469   -2.8912   15.2002 C   0  0  0  0  0  0
  -45.9070   -2.1463   17.3604 C   0  0  0  0  0  0
  -45.6446   -2.4511   16.0792 C   0  0  0  0  0  0
  -44.8473   -1.6916   18.2829 C   0  0  0  0  0  0
  -49.7463   -3.3867   20.0122 C   0  0  0  0  0  0
  -43.5060   -1.9660   18.0018 C   0  0  0  0  0  0
  -45.1803   -0.9843   19.4410 C   0  0  0  0  0  0
  -42.5051   -1.5355   18.8724 C   0  0  0  0  0  0
  -44.1787   -0.5542   20.3121 C   0  0  0  0  0  0
  -42.8408   -0.8297   20.0274 C   0  0  0  0  0  0
  -54.0862   -7.5879   15.0633 H   0  0  0  0  0  0
  -54.7029   -4.0601   16.6204 H   0  0  0  0  0  0
  -52.5114   -9.0054   17.8305 H   0  0  0  0  0  0
  -50.4581   -9.2084   19.6068 H   0  0  0  0  0  0
  -48.2073   -4.0035   13.5406 H   0  0  0  0  0  0
  1 15  1  0  0  0
  1 16  1  0  0  0
  2 15  1  0  0  0
  2 18  1  0  0  0
  3 12  1  0  0  0
  3 34  1  0  0  0
  4 13  1  0  0  0
  4 35  1  0  0  0
  5 14  1  0  0  0
  5 36  1  0  0  0
  6 17  1  0  0  0
  6 37  1  0  0  0
  7 17  2  0  0  0
  8 21  1  0  0  0
  8 25  1  0  0  0
  9 19  1  0  0  0
  9 28  1  0  0  0
 10 23  1  0  0  0
 10 38  1  0  0  0
 11 24  2  0  0  0
 12 13  1  0  0  0
 13 15  1  0  0  0
 14 12  1  0  0  0
 16 14  1  0  0  0
 16 17  1  0  0  0
 18 19  2  0  0  0
 18 20  1  0  0  0
 19 21  1  0  0  0
 20 23  2  0  0  0
 21 22  2  0  0  0
 22 23  1  0  0  0
 22 24  1  0  0  0
 24 26  1  0  0  0
 25 26  2  0  0  0
 25 27  1  0  0  0
 27 29  2  0  0  0
 27 30  1  0  0  0
 29 31  1  0  0  0
 30 32  2  0  0  0
 31 33  2  0  0  0
 32 33  1  0  0  0
M  END
>  <CHROM.0>
62.46113116,-60.07302694,52.78171928

>  <CHROM.1>
44.21373844,-114.42573839,-174.02721276,58.28641247,-169.61819411,3.67039438
77.75733350,-156.08324621,174.29774725,160.34409155,-49.21173852,-4.00122954
17.37254704,-3.04583240,-0.54962857,-1.14708851

>  <Name>
Wogonoside.pdb

>  <RI>
-3.16935e+08

>  <Rbt.Current_Directory>
/root/miniconda3/envs/rdock/share/rxdock-2013.1.1_148c5bd1-0/data/ligands/prepped_ligands/Wogonoside

>  <Rbt.Executable>
rbdock/0.1.0

>  <Rbt.Library>
librxdock.so/0.1.0

>  <Rbt.Parameter_File>
/root/miniconda3/envs/rdock/share/rxdock-2013.1.1_148c5bd1-0/data/scripts/dock.prm

>  <Rbt.Receptor>
def.prm

>  <SCORE>
-14.9554

>  <SCORE.INTER>
-12.878

>  <SCORE.INTER.CONST>
1

>  <SCORE.INTER.POLAR>
-1.10891

>  <SCORE.INTER.REPUL>
0.183627

>  <SCORE.INTER.ROT>
5

>  <SCORE.INTER.VDW>
-20.4258

>  <SCORE.INTER.norm>
-0.390243

>  <SCORE.INTRA>
-1.09075

>  <SCORE.INTRA.DIHEDRAL>
2.10105

>  <SCORE.INTRA.DIHEDRAL.0>
10.6366

>  <SCORE.INTRA.POLAR>
-0.748372

>  <SCORE.INTRA.POLAR.0>
0

>  <SCORE.INTRA.REPUL>
0

>  <SCORE.INTRA.REPUL.0>
0

>  <SCORE.INTRA.VDW>
0.403187

>  <SCORE.INTRA.VDW.0>
-0.944467

>  <SCORE.INTRA.norm>
-0.0330531

>  <SCORE.RESTR>
0

>  <SCORE.RESTR.CAVITY>
0

>  <SCORE.RESTR.norm>
0

>  <SCORE.SYSTEM>
-0.98669

>  <SCORE.SYSTEM.CONST>
0

>  <SCORE.SYSTEM.DIHEDRAL>
0.146115

>  <SCORE.SYSTEM.VDW>
-1.05975

>  <SCORE.SYSTEM.norm>
-0.0298997

>  <SCORE.heavy>
33

>  <SCORE.norm>
-0.453195

$$$$
