Wogonoside.pdb
 OpenBabel02182114013D

 53 56  0  0  1  0  0  0  0  0999 V2000
   -2.8590    0.4640   -0.3400 O   0  0  0  0  0  0  0  0  0  0  0  0
   -1.9910   -0.6710    1.5040 O   0  0  0  0  0  0  0  0  0  0  0  0
   -6.5040    0.9330    1.4950 O   0  0  0  0  0  0  0  0  0  0  0  0
   -4.6180   -1.1210    2.4410 O   0  0  0  0  0  0  0  0  0  0  0  0
   -6.2790    1.2250   -1.3890 O   0  0  0  0  0  0  0  0  0  0  0  0
   -4.3650    1.9160   -3.1590 O   0  0  0  0  0  0  0  0  0  0  0  0
   -2.3470    2.2020   -2.1390 O   0  0  0  0  0  0  0  0  0  0  0  0
    2.5670    0.1550    0.4200 O   0  0  0  0  0  0  0  0  0  0  0  0
    0.2650    0.9290    1.6230 O   0  0  0  0  0  0  0  0  0  0  0  0
    0.3580   -3.8960   -1.0640 O   0  0  0  0  0  0  0  0  0  0  0  0
    2.8660   -3.3600   -1.6180 O   0  0  0  0  0  0  0  0  0  0  0  0
   -5.5340    0.2620    0.6890 C   0  0  2  0  0  0  0  0  0  0  0  0
   -4.3040   -0.0630    1.5370 C   0  0  2  0  0  0  0  0  0  0  0  0
   -5.1780    1.1770   -0.4830 C   0  0  1  0  0  0  0  0  0  0  0  0
   -3.1320   -0.5120    0.6630 C   0  0  1  0  0  0  0  0  0  0  0  0
   -3.9560    0.6520   -1.2260 C   0  0  1  0  0  0  0  0  0  0  0  0
   -3.4440    1.6650   -2.1980 C   0  0  0  0  0  0  0  0  0  0  0  0
   -0.8340   -1.0640    0.8970 C   0  0  0  0  0  0  0  0  0  0  0  0
    0.3050   -0.2600    0.9550 C   0  0  0  0  0  0  0  0  0  0  0  0
   -0.7980   -2.2810    0.2150 C   0  0  0  0  0  0  0  0  0  0  0  0
    1.4810   -0.6770    0.3290 C   0  0  0  0  0  0  0  0  0  0  0  0
    1.5140   -1.8930   -0.3510 C   0  0  0  0  0  0  0  0  0  0  0  0
    0.3760   -2.7000   -0.4110 C   0  0  0  0  0  0  0  0  0  0  0  0
    2.7660   -2.3070   -1.0030 C   0  0  0  0  0  0  0  0  0  0  0  0
    3.7510   -0.2360   -0.1860 C   0  0  0  0  0  0  0  0  0  0  0  0
    3.9070   -1.3780   -0.8750 C   0  0  0  0  0  0  0  0  0  0  0  0
    4.8530    0.7350   -0.0330 C   0  0  0  0  0  0  0  0  0  0  0  0
    0.6060    0.9050    3.0070 C   0  0  0  0  0  0  0  0  0  0  0  0
    5.8260    0.8560   -1.0290 C   0  0  0  0  0  0  0  0  0  0  0  0
    4.9280    1.5380    1.1080 C   0  0  0  0  0  0  0  0  0  0  0  0
    6.8660    1.7740   -0.8850 C   0  0  0  0  0  0  0  0  0  0  0  0
    5.9690    2.4560    1.2520 C   0  0  0  0  0  0  0  0  0  0  0  0
    6.9380    2.5740    0.2550 C   0  0  0  0  0  0  0  0  0  0  0  0
   -6.0120   -0.6580    0.3300 H   0  0  0  0  0  0  0  0  0  0  0  0
   -4.0150    0.8050    2.1420 H   0  0  0  0  0  0  0  0  0  0  0  0
   -5.0110    2.1990   -0.1210 H   0  0  0  0  0  0  0  0  0  0  0  0
   -3.3780   -1.4740    0.1940 H   0  0  0  0  0  0  0  0  0  0  0  0
   -4.1510   -0.2780   -1.7750 H   0  0  0  0  0  0  0  0  0  0  0  0
   -6.7910    0.3150    2.1880 H   0  0  0  0  0  0  0  0  0  0  0  0
   -5.2990   -0.7940    3.0530 H   0  0  0  0  0  0  0  0  0  0  0  0
   -6.4350    0.3250   -1.7220 H   0  0  0  0  0  0  0  0  0  0  0  0
   -1.6750   -2.9230    0.1810 H   0  0  0  0  0  0  0  0  0  0  0  0
   -4.0480    2.5810   -3.8070 H   0  0  0  0  0  0  0  0  0  0  0  0
    4.8360   -1.6870   -1.3370 H   0  0  0  0  0  0  0  0  0  0  0  0
    1.2240   -4.0820   -1.4560 H   0  0  0  0  0  0  0  0  0  0  0  0
    1.6320    0.5490    3.1460 H   0  0  0  0  0  0  0  0  0  0  0  0
    0.5340    1.9240    3.3950 H   0  0  0  0  0  0  0  0  0  0  0  0
   -0.0900    0.2690    3.5630 H   0  0  0  0  0  0  0  0  0  0  0  0
    5.7940    0.2680   -1.9420 H   0  0  0  0  0  0  0  0  0  0  0  0
    4.1910    1.4620    1.9030 H   0  0  0  0  0  0  0  0  0  0  0  0
    7.6190    1.8700   -1.6630 H   0  0  0  0  0  0  0  0  0  0  0  0
    6.0260    3.0780    2.1410 H   0  0  0  0  0  0  0  0  0  0  0  0
    7.7480    3.2890    0.3680 H   0  0  0  0  0  0  0  0  0  0  0  0
  1 15  1  0  0  0  0
  1 16  1  0  0  0  0
  2 15  1  0  0  0  0
  2 18  1  0  0  0  0
  3 12  1  0  0  0  0
  3 39  1  0  0  0  0
  4 13  1  0  0  0  0
  4 40  1  0  0  0  0
  5 14  1  0  0  0  0
  5 41  1  0  0  0  0
  6 17  1  0  0  0  0
  6 43  1  0  0  0  0
  7 17  2  0  0  0  0
  8 21  1  0  0  0  0
  8 25  1  0  0  0  0
  9 19  1  0  0  0  0
  9 28  1  0  0  0  0
 10 23  1  0  0  0  0
 10 45  1  0  0  0  0
 11 24  2  0  0  0  0
 12 13  1  1  0  0  0
 12 34  1  0  0  0  0
 13 15  1  6  0  0  0
 13 35  1  0  0  0  0
 14 12  1  1  0  0  0
 14 36  1  0  0  0  0
 15 37  1  6  0  0  0
 16 14  1  1  0  0  0
 16 17  1  0  0  0  0
 16 38  1  0  0  0  0
 18 19  2  0  0  0  0
 18 20  1  0  0  0  0
 19 21  1  0  0  0  0
 20 23  2  0  0  0  0
 20 42  1  0  0  0  0
 21 22  2  0  0  0  0
 22 23  1  0  0  0  0
 22 24  1  0  0  0  0
 24 26  1  0  0  0  0
 25 26  2  0  0  0  0
 25 27  1  0  0  0  0
 26 44  1  0  0  0  0
 27 29  2  0  0  0  0
 27 30  1  0  0  0  0
 28 46  1  0  0  0  0
 28 47  1  0  0  0  0
 28 48  1  0  0  0  0
 29 31  1  0  0  0  0
 29 49  1  0  0  0  0
 30 32  2  0  0  0  0
 30 50  1  0  0  0  0
 31 33  2  0  0  0  0
 31 51  1  0  0  0  0
 32 33  1  0  0  0  0
 32 52  1  0  0  0  0
 33 53  1  0  0  0  0
M  END
$$$$
