Remdesivir.pdb
  RxDock  02242112043D
librxdock.so/0.1.0
 47 50  0  0  0  0  0  0  0  0999 V2000
  -51.6579   -3.2686   15.4294 P   0  0  0  0  0  0
  -49.4222   -5.1550   18.2941 O   0  0  0  0  0  0
  -49.5436   -8.7542   18.3244 O   0  0  0  0  0  0
  -47.8925   -7.6645   16.5946 O   0  0  0  0  0  0
  -50.8347   -4.5818   15.8655 O   0  0  0  0  0  0
  -52.9412   -3.8753   14.6616 O   0  0  0  0  0  0
  -52.0935   -2.4935   16.6455 O   0  0  0  0  0  0
  -48.5798   -0.6994   16.8469 O   0  0  0  0  0  0
  -50.6984   -0.2308   16.2565 O   0  0  0  0  0  0
  -51.6862   -5.2040   19.9465 N   0  0  0  0  0  0
  -51.8557   -4.1537   19.0887 N   0  0  0  0  0  0
  -50.8180   -2.3830   14.5477 N   0  0  0  0  0  0
  -47.4561   -6.9140   20.3623 N   0  0  0  0  0  0
  -53.7803   -3.4428   20.3235 N   0  0  0  0  0  0
  -54.4979   -4.6129   22.1894 N   0  0  0  0  0  0
  -49.6364   -6.3699   19.0359 C   0  0  0  0  0  0
  -49.9149   -7.4207   17.9418 C   0  0  0  0  0  0
  -49.1228   -6.9350   16.7172 C   0  0  0  0  0  0
  -48.8309   -5.4523   17.0152 C   0  0  0  0  0  0
  -50.7826   -6.2129   20.0279 C   0  0  0  0  0  0
  -49.3995   -4.5266   15.9264 C   0  0  0  0  0  0
  -48.4051   -6.6760   19.7848 C   0  0  0  0  0  0
  -51.0496   -7.0156   21.0789 C   0  0  0  0  0  0
  -52.5347   -5.4006   20.9893 C   0  0  0  0  0  0
  -52.1846   -6.4974   21.7091 C   0  0  0  0  0  0
  -53.6016   -4.4780   21.1562 C   0  0  0  0  0  0
  -49.5232   -2.0500   15.1534 C   0  0  0  0  0  0
  -52.8645   -3.3442   19.3075 C   0  0  0  0  0  0
  -48.6568   -0.5863   19.3250 C   0  0  0  0  0  0
  -48.6947    0.1792   17.9830 C   0  0  0  0  0  0
  -48.8183    0.4150   20.4920 C   0  0  0  0  0  0
  -49.7927   -1.6359   19.3719 C   0  0  0  0  0  0
  -49.6910   -0.8996   16.1181 C   0  0  0  0  0  0
  -48.5518   -1.6322   14.0379 C   0  0  0  0  0  0
  -53.6539   -4.9296   15.1622 C   0  0  0  0  0  0
  -48.0963   -0.0616   21.7651 C   0  0  0  0  0  0
  -49.5167   -2.7207   20.4302 C   0  0  0  0  0  0
  -53.0255   -6.0725   15.6230 C   0  0  0  0  0  0
  -55.0315   -4.8485   15.2145 C   0  0  0  0  0  0
  -53.7657   -7.1171   16.1247 C   0  0  0  0  0  0
  -55.7710   -5.8946   15.7149 C   0  0  0  0  0  0
  -55.1390   -7.0289   16.1695 C   0  0  0  0  0  0
  -50.0420   -9.0517   19.1466 H   0  0  0  0  0  0
  -48.0440   -8.6546   16.6815 H   0  0  0  0  0  0
  -51.3325   -1.5207   14.3341 H   0  0  0  0  0  0
  -55.1521   -4.0314   22.2783 H   0  0  0  0  0  0
  -54.4220   -5.2768   22.7630 H   0  0  0  0  0  0
  1  5  1  0  0  0
  1  6  1  0  0  0
  1  7  2  0  0  0
  1 12  1  0  0  0
  2 16  1  0  0  0
  2 19  1  0  0  0
  3 17  1  0  0  0
  3 43  1  0  0  0
  4 18  1  0  0  0
  4 44  1  0  0  0
  5 21  1  0  0  0
  6 35  1  0  0  0
  8 30  1  0  0  0
  8 33  1  0  0  0
  9 33  2  0  0  0
 10 11  1  0  0  0
 10 20  1  0  0  0
 10 24  1  0  0  0
 11 28  2  0  0  0
 12 27  1  0  0  0
 12 45  1  0  0  0
 13 22  3  0  0  0
 14 26  2  0  0  0
 14 28  1  0  0  0
 15 26  1  0  0  0
 15 46  1  0  0  0
 15 47  1  0  0  0
 16 17  1  0  0  0
 16 20  1  0  0  0
 16 22  1  0  0  0
 17 18  1  0  0  0
 18 19  1  0  0  0
 19 21  1  0  0  0
 20 23  2  0  0  0
 23 25  1  0  0  0
 24 25  2  0  0  0
 24 26  1  0  0  0
 27 33  1  0  0  0
 27 34  1  0  0  0
 29 30  1  0  0  0
 29 31  1  0  0  0
 29 32  1  0  0  0
 31 36  1  0  0  0
 32 37  1  0  0  0
 35 38  2  0  0  0
 35 39  1  0  0  0
 38 40  1  0  0  0
 39 41  2  0  0  0
 40 42  2  0  0  0
 41 42  1  0  0  0
M  END
>  <CHROM.0>
-11.68806065,-162.80704271,-40.13850631

>  <CHROM.1>
147.60150889,45.08601915,-53.54418111,59.53881520,47.93903861,148.32079498
-47.77785756,107.28947377,11.29927712,-82.20446284,16.55801256,-55.02772750
170.32074603,-178.67609493,-150.17146074,160.53668480,-50.91884678,-4.17964910
17.86696076,0.58697815,-0.92894417,-0.95892193

>  <HEADER>
                                                                          

>  <MASTER>
        0    0    0    0    0    0    0    0   77    0   77    0          

>  <Name>
Remdesivir.pdb

>  <RI>
-6.67806e+08

>  <Rbt.Current_Directory>
/root/miniconda3/envs/rdock/share/rxdock-2013.1.1_148c5bd1-0/data/ligands/prepped_ligands/Remdesivir

>  <Rbt.Executable>
rbdock/0.1.0

>  <Rbt.Library>
librxdock.so/0.1.0

>  <Rbt.Parameter_File>
/root/miniconda3/envs/rdock/share/rxdock-2013.1.1_148c5bd1-0/data/scripts/dock.prm

>  <Rbt.Receptor>
def.prm

>  <SCORE>
-9.55185

>  <SCORE.INTER>
-7.30718

>  <SCORE.INTER.CONST>
1

>  <SCORE.INTER.POLAR>
-0.896396

>  <SCORE.INTER.REPUL>
0.153887

>  <SCORE.INTER.ROT>
14

>  <SCORE.INTER.VDW>
-24.4289

>  <SCORE.INTER.norm>
-0.17398

>  <SCORE.INTRA>
-6.04709

>  <SCORE.INTRA.DIHEDRAL>
-9.47141

>  <SCORE.INTRA.DIHEDRAL.0>
33.3194

>  <SCORE.INTRA.POLAR>
-0.032503

>  <SCORE.INTRA.POLAR.0>
0

>  <SCORE.INTRA.REPUL>
-0.0442075

>  <SCORE.INTRA.REPUL.0>
0.188091

>  <SCORE.INTRA.VDW>
-0.979834

>  <SCORE.INTRA.VDW.0>
-0.0599272

>  <SCORE.INTRA.norm>
-0.143978

>  <SCORE.RESTR>
1.42486

>  <SCORE.RESTR.CAVITY>
1.42486

>  <SCORE.RESTR.norm>
0.0339253

>  <SCORE.SYSTEM>
2.37755

>  <SCORE.SYSTEM.CONST>
0

>  <SCORE.SYSTEM.DIHEDRAL>
5.5033

>  <SCORE.SYSTEM.POLAR>
-0.0193486

>  <SCORE.SYSTEM.VDW>
-0.308317

>  <SCORE.SYSTEM.norm>
0.0566083

>  <SCORE.heavy>
42

>  <SCORE.norm>
-0.227425

>  <TITLE>
    121304016_D                                                           

$$$$
Remdesivir.pdb
  RxDock  02242112043D
librxdock.so/0.1.0
 47 50  0  0  0  0  0  0  0  0999 V2000
  -47.6312   -1.1285   15.1294 P   0  0  0  0  0  0
  -51.3161   -4.1800   15.8711 O   0  0  0  0  0  0
  -51.7893   -3.4676   19.3694 O   0  0  0  0  0  0
  -52.0706   -1.4376   17.7245 O   0  0  0  0  0  0
  -48.8309   -1.9661   15.8014 O   0  0  0  0  0  0
  -48.0268   -1.1074   13.5648 O   0  0  0  0  0  0
  -47.5965    0.2735   15.6796 O   0  0  0  0  0  0
  -45.1929    0.7261   17.2414 O   0  0  0  0  0  0
  -43.6798   -0.4579   16.0730 O   0  0  0  0  0  0
  -49.9717   -6.4155   17.5875 N   0  0  0  0  0  0
  -48.8041   -5.7057   17.6065 N   0  0  0  0  0  0
  -46.3070   -1.7978   15.3851 N   0  0  0  0  0  0
  -54.3269   -4.5483   17.2981 N   0  0  0  0  0  0
  -47.5729   -7.7217   17.9993 N   0  0  0  0  0  0
  -48.6533   -9.7638   18.1678 N   0  0  0  0  0  0
  -51.7220   -4.6395   17.1734 C   0  0  0  0  0  0
  -51.0698   -3.6267   18.1368 C   0  0  0  0  0  0
  -51.0000   -2.3135   17.3410 C   0  0  0  0  0  0
  -51.1717   -2.7473   15.8730 C   0  0  0  0  0  0
  -51.2738   -6.0761   17.4136 C   0  0  0  0  0  0
  -49.9745   -2.3216   15.0062 C   0  0  0  0  0  0
  -53.1929   -4.5880   17.2427 C   0  0  0  0  0  0
  -52.0690   -7.1636   17.4834 C   0  0  0  0  0  0
  -49.9757   -7.7621   17.7690 C   0  0  0  0  0  0
  -51.2367   -8.2626   17.7140 C   0  0  0  0  0  0
  -48.7264   -8.4044   17.9786 C   0  0  0  0  0  0
  -45.7758   -1.5037   16.7214 C   0  0  0  0  0  0
  -47.6900   -6.3691   17.8060 C   0  0  0  0  0  0
  -45.2242   -0.0155   19.6097 C   0  0  0  0  0  0
  -46.0166    0.5532   18.4109 C   0  0  0  0  0  0
  -43.9718    0.8565   19.8575 C   0  0  0  0  0  0
  -46.1128   -0.0313   20.8763 C   0  0  0  0  0  0
  -44.7582   -0.3906   16.6333 C   0  0  0  0  0  0
  -45.0919   -2.7673   17.2673 C   0  0  0  0  0  0
  -48.4143    0.0406   12.9306 C   0  0  0  0  0  0
  -42.7312    0.0053   20.1825 C   0  0  0  0  0  0
  -45.4493   -0.8179   22.0226 C   0  0  0  0  0  0
  -49.5832    0.6960   13.2734 C   0  0  0  0  0  0
  -47.6171    0.5602   11.9297 C   0  0  0  0  0  0
  -49.9480    1.8507   12.6218 C   0  0  0  0  0  0
  -47.9838    1.7142   11.2776 C   0  0  0  0  0  0
  -49.1488    2.3594   11.6226 C   0  0  0  0  0  0
  -51.8536   -4.3376   19.8712 H   0  0  0  0  0  0
  -51.9763   -0.5340   17.2940 H   0  0  0  0  0  0
  -45.6293   -1.5065   14.6712 H   0  0  0  0  0  0
  -47.8708  -10.1452   18.2950 H   0  0  0  0  0  0
  -49.3838  -10.2557   18.1622 H   0  0  0  0  0  0
  1  5  1  0  0  0
  1  6  1  0  0  0
  1  7  2  0  0  0
  1 12  1  0  0  0
  2 16  1  0  0  0
  2 19  1  0  0  0
  3 17  1  0  0  0
  3 43  1  0  0  0
  4 18  1  0  0  0
  4 44  1  0  0  0
  5 21  1  0  0  0
  6 35  1  0  0  0
  8 30  1  0  0  0
  8 33  1  0  0  0
  9 33  2  0  0  0
 10 11  1  0  0  0
 10 20  1  0  0  0
 10 24  1  0  0  0
 11 28  2  0  0  0
 12 27  1  0  0  0
 12 45  1  0  0  0
 13 22  3  0  0  0
 14 26  2  0  0  0
 14 28  1  0  0  0
 15 26  1  0  0  0
 15 46  1  0  0  0
 15 47  1  0  0  0
 16 17  1  0  0  0
 16 20  1  0  0  0
 16 22  1  0  0  0
 17 18  1  0  0  0
 18 19  1  0  0  0
 19 21  1  0  0  0
 20 23  2  0  0  0
 23 25  1  0  0  0
 24 25  2  0  0  0
 24 26  1  0  0  0
 27 33  1  0  0  0
 27 34  1  0  0  0
 29 30  1  0  0  0
 29 31  1  0  0  0
 29 32  1  0  0  0
 31 36  1  0  0  0
 32 37  1  0  0  0
 35 38  2  0  0  0
 35 39  1  0  0  0
 38 40  1  0  0  0
 39 41  2  0  0  0
 40 42  2  0  0  0
 41 42  1  0  0  0
M  END
>  <CHROM.0>
-61.60024670,-54.25551659,-164.31053993

>  <CHROM.1>
-7.93067163,111.15425554,-80.56065146,59.97105252,173.26202789,-163.61940117
-65.16629011,69.19462549,-146.95539607,-98.28096695,70.00013580,-102.92779575
112.64823150,52.81993779,-138.60755998,169.82503716,-48.45948049,-2.52874384
16.72703685,0.86517435,-0.59419625,-0.69647277

>  <HEADER>
                                                                          

>  <MASTER>
        0    0    0    0    0    0    0    0   77    0   77    0          

>  <Name>
Remdesivir.pdb

>  <RI>
-6.67806e+08

>  <Rbt.Current_Directory>
/root/miniconda3/envs/rdock/share/rxdock-2013.1.1_148c5bd1-0/data/ligands/prepped_ligands/Remdesivir

>  <Rbt.Executable>
rbdock/0.1.0

>  <Rbt.Library>
librxdock.so/0.1.0

>  <Rbt.Parameter_File>
/root/miniconda3/envs/rdock/share/rxdock-2013.1.1_148c5bd1-0/data/scripts/dock.prm

>  <Rbt.Receptor>
def.prm

>  <SCORE>
-10.0283

>  <SCORE.INTER>
-8.83697

>  <SCORE.INTER.CONST>
1

>  <SCORE.INTER.POLAR>
-0.129053

>  <SCORE.INTER.REPUL>
0.696738

>  <SCORE.INTER.ROT>
14

>  <SCORE.INTER.VDW>
-31.2819

>  <SCORE.INTER.norm>
-0.210404

>  <SCORE.INTRA>
-0.60546

>  <SCORE.INTRA.DIHEDRAL>
-0.645678

>  <SCORE.INTRA.DIHEDRAL.0>
33.3194

>  <SCORE.INTRA.POLAR>
0

>  <SCORE.INTRA.POLAR.0>
0

>  <SCORE.INTRA.REPUL>
-0.0259479

>  <SCORE.INTRA.REPUL.0>
0.188091

>  <SCORE.INTRA.VDW>
-0.152881

>  <SCORE.INTRA.VDW.0>
-0.0599272

>  <SCORE.INTRA.norm>
-0.0144157

>  <SCORE.RESTR>
0

>  <SCORE.RESTR.CAVITY>
0

>  <SCORE.RESTR.norm>
0

>  <SCORE.SYSTEM>
-0.585911

>  <SCORE.SYSTEM.CONST>
0

>  <SCORE.SYSTEM.DIHEDRAL>
0.731851

>  <SCORE.SYSTEM.POLAR>
-0.0199429

>  <SCORE.SYSTEM.VDW>
-0.884031

>  <SCORE.SYSTEM.norm>
-0.0139503

>  <SCORE.heavy>
42

>  <SCORE.norm>
-0.23877

>  <TITLE>
    121304016_D                                                           

$$$$
Remdesivir.pdb
  RxDock  02242112043D
librxdock.so/0.1.0
 47 50  0  0  0  0  0  0  0  0999 V2000
  -51.5132   -3.1651   16.0043 P   0  0  0  0  0  0
  -47.6008   -0.8552   15.7600 O   0  0  0  0  0  0
  -45.2243   -3.0938   17.2799 O   0  0  0  0  0  0
  -46.1200   -3.7892   14.9092 O   0  0  0  0  0  0
  -49.9227   -2.9180   15.9633 O   0  0  0  0  0  0
  -51.9033   -2.8066   17.5288 O   0  0  0  0  0  0
  -52.2146   -2.2328   15.0513 O   0  0  0  0  0  0
  -52.2915   -7.3634   17.1037 O   0  0  0  0  0  0
  -53.6545   -7.1539   15.3274 O   0  0  0  0  0  0
  -45.9081   -0.3955   19.0153 N   0  0  0  0  0  0
  -45.0397   -1.3756   19.4061 N   0  0  0  0  0  0
  -51.8397   -4.5891   15.6401 N   0  0  0  0  0  0
  -44.3077   -0.3999   15.3306 N   0  0  0  0  0  0
  -44.8421   -0.3546   21.5632 N   0  0  0  0  0  0
  -46.0061    1.5813   22.0761 N   0  0  0  0  0  0
  -46.4743   -1.0385   16.6371 C   0  0  0  0  0  0
  -46.5146   -2.5435   16.9724 C   0  0  0  0  0  0
  -47.1398   -3.2070   15.7348 C   0  0  0  0  0  0
  -47.8279   -2.0490   14.9877 C   0  0  0  0  0  0
  -46.5830   -0.1432   17.8656 C   0  0  0  0  0  0
  -49.3347   -2.2995   14.8065 C   0  0  0  0  0  0
  -45.2516   -0.6773   15.8987 C   0  0  0  0  0  0
  -47.3303    0.9741   17.9804 C   0  0  0  0  0  0
  -46.2600    0.6070   19.8623 C   0  0  0  0  0  0
  -47.1277    1.4686   19.2720 C   0  0  0  0  0  0
  -45.6948    0.6002   21.1652 C   0  0  0  0  0  0
  -52.8899   -5.1615   16.4907 C   0  0  0  0  0  0
  -44.5589   -1.3141   20.6251 C   0  0  0  0  0  0
  -50.2857   -7.7080   18.5242 C   0  0  0  0  0  0
  -51.1069   -6.7427   17.6398 C   0  0  0  0  0  0
  -48.9961   -6.9988   18.9978 C   0  0  0  0  0  0
  -51.1220   -8.1509   19.7483 C   0  0  0  0  0  0
  -53.0108   -6.6439   16.2257 C   0  0  0  0  0  0
  -54.2246   -4.4799   16.1493 C   0  0  0  0  0  0
  -50.9543   -2.5342   18.4749 C   0  0  0  0  0  0
  -47.9770   -6.8320   17.8563 C   0  0  0  0  0  0
  -51.5562   -6.9448   20.6026 C   0  0  0  0  0  0
  -50.3137   -1.3091   18.5237 C   0  0  0  0  0  0
  -50.6332   -3.5019   19.4064 C   0  0  0  0  0  0
  -49.3654   -1.0598   19.4877 C   0  0  0  0  0  0
  -49.6833   -3.2520   20.3692 C   0  0  0  0  0  0
  -49.0489   -2.0320   20.4100 C   0  0  0  0  0  0
  -44.6395   -3.1360   16.4619 H   0  0  0  0  0  0
  -45.5123   -3.0852   14.5272 H   0  0  0  0  0  0
  -50.9918   -5.1644   15.7022 H   0  0  0  0  0  0
  -45.6475    1.5608   22.8792 H   0  0  0  0  0  0
  -46.5619    2.2300   21.8618 H   0  0  0  0  0  0
  1  5  1  0  0  0
  1  6  1  0  0  0
  1  7  2  0  0  0
  1 12  1  0  0  0
  2 16  1  0  0  0
  2 19  1  0  0  0
  3 17  1  0  0  0
  3 43  1  0  0  0
  4 18  1  0  0  0
  4 44  1  0  0  0
  5 21  1  0  0  0
  6 35  1  0  0  0
  8 30  1  0  0  0
  8 33  1  0  0  0
  9 33  2  0  0  0
 10 11  1  0  0  0
 10 20  1  0  0  0
 10 24  1  0  0  0
 11 28  2  0  0  0
 12 27  1  0  0  0
 12 45  1  0  0  0
 13 22  3  0  0  0
 14 26  2  0  0  0
 14 28  1  0  0  0
 15 26  1  0  0  0
 15 46  1  0  0  0
 15 47  1  0  0  0
 16 17  1  0  0  0
 16 20  1  0  0  0
 16 22  1  0  0  0
 17 18  1  0  0  0
 18 19  1  0  0  0
 19 21  1  0  0  0
 20 23  2  0  0  0
 23 25  1  0  0  0
 24 25  2  0  0  0
 24 26  1  0  0  0
 27 33  1  0  0  0
 27 34  1  0  0  0
 29 30  1  0  0  0
 29 31  1  0  0  0
 29 32  1  0  0  0
 31 36  1  0  0  0
 32 37  1  0  0  0
 35 38  2  0  0  0
 35 39  1  0  0  0
 38 40  1  0  0  0
 39 41  2  0  0  0
 40 42  2  0  0  0
 41 42  1  0  0  0
M  END
>  <CHROM.0>
-75.70299360,-66.84910883,-52.49724502

>  <CHROM.1>
-140.14569494,-6.76513664,138.38791701,-69.77679894,-64.97081514,175.72309159
77.31548429,-174.25060023,149.33917526,-170.87353419,159.27298254,-80.50880655
95.23712034,176.91194220,-72.38238641,-59.15498937,-48.92795356,-2.98397596
17.71878291,-3.12062366,0.76613936,1.87056815

>  <HEADER>
                                                                          

>  <MASTER>
        0    0    0    0    0    0    0    0   77    0   77    0          

>  <Name>
Remdesivir.pdb

>  <RI>
-6.67806e+08

>  <Rbt.Current_Directory>
/root/miniconda3/envs/rdock/share/rxdock-2013.1.1_148c5bd1-0/data/ligands/prepped_ligands/Remdesivir

>  <Rbt.Executable>
rbdock/0.1.0

>  <Rbt.Library>
librxdock.so/0.1.0

>  <Rbt.Parameter_File>
/root/miniconda3/envs/rdock/share/rxdock-2013.1.1_148c5bd1-0/data/scripts/dock.prm

>  <Rbt.Receptor>
def.prm

>  <SCORE>
-7.49753

>  <SCORE.INTER>
-0.755379

>  <SCORE.INTER.CONST>
1

>  <SCORE.INTER.POLAR>
-0.277382

>  <SCORE.INTER.REPUL>
0.0850423

>  <SCORE.INTER.ROT>
14

>  <SCORE.INTER.VDW>
-19.6375

>  <SCORE.INTER.norm>
-0.0179852

>  <SCORE.INTRA>
-6.25699

>  <SCORE.INTRA.DIHEDRAL>
-11.406

>  <SCORE.INTRA.DIHEDRAL.0>
33.3194

>  <SCORE.INTRA.POLAR>
0

>  <SCORE.INTRA.POLAR.0>
0

>  <SCORE.INTRA.REPUL>
-0.188091

>  <SCORE.INTRA.REPUL.0>
0.188091

>  <SCORE.INTRA.VDW>
0.386486

>  <SCORE.INTRA.VDW.0>
-0.0599272

>  <SCORE.INTRA.norm>
-0.148976

>  <SCORE.RESTR>
0.0578828

>  <SCORE.RESTR.CAVITY>
0.0578828

>  <SCORE.RESTR.norm>
0.00137816

>  <SCORE.SYSTEM>
-0.54305

>  <SCORE.SYSTEM.CONST>
0

>  <SCORE.SYSTEM.DIHEDRAL>
0.945592

>  <SCORE.SYSTEM.POLAR>
-0.0150962

>  <SCORE.SYSTEM.VDW>
-0.964518

>  <SCORE.SYSTEM.norm>
-0.0129298

>  <SCORE.heavy>
42

>  <SCORE.norm>
-0.178513

>  <TITLE>
    121304016_D                                                           

$$$$
Remdesivir.pdb
  RxDock  02242112053D
librxdock.so/0.1.0
 47 50  0  0  0  0  0  0  0  0999 V2000
  -47.4678   -1.9054   15.2324 P   0  0  0  0  0  0
  -49.7082   -4.2715   14.3341 O   0  0  0  0  0  0
  -52.0251   -2.2272   16.1842 O   0  0  0  0  0  0
  -51.7574   -1.6573   13.6328 O   0  0  0  0  0  0
  -47.8843   -1.6397   13.7000 O   0  0  0  0  0  0
  -48.4174   -0.8917   16.0542 O   0  0  0  0  0  0
  -47.7656   -3.3308   15.6184 O   0  0  0  0  0  0
  -45.5550    0.9634   17.0833 O   0  0  0  0  0  0
  -43.5931   -0.1265   16.9416 O   0  0  0  0  0  0
  -50.8086   -4.8757   17.8397 N   0  0  0  0  0  0
  -51.9587   -4.2743   18.2675 N   0  0  0  0  0  0
  -46.0028   -1.6277   15.4412 N   0  0  0  0  0  0
  -52.9120   -5.1979   14.6722 N   0  0  0  0  0  0
  -51.6541   -5.2192   20.4467 N   0  0  0  0  0  0
  -49.8292   -6.5663   20.9168 N   0  0  0  0  0  0
  -50.6420   -4.1528   15.4232 C   0  0  0  0  0  0
  -50.7593   -2.6300   15.6383 C   0  0  0  0  0  0
  -50.5124   -2.0152   14.2512 C   0  0  0  0  0  0
  -49.8289   -3.1403   13.4514 C   0  0  0  0  0  0
  -50.1467   -4.9002   16.6555 C   0  0  0  0  0  0
  -48.4480   -2.7122   12.9263 C   0  0  0  0  0  0
  -51.9232   -4.7435   14.9984 C   0  0  0  0  0  0
  -49.0325   -5.6559   16.7415 C   0  0  0  0  0  0
  -50.0671   -5.6458   18.6783 C   0  0  0  0  0  0
  -48.9717   -6.1445   18.0497 C   0  0  0  0  0  0
  -50.5284   -5.8032   20.0123 C   0  0  0  0  0  0
  -45.6705   -1.3849   16.8500 C   0  0  0  0  0  0
  -52.3205   -4.4667   19.5137 C   0  0  0  0  0  0
  -46.4111    0.6011   19.3845 C   0  0  0  0  0  0
  -46.7393    0.8720   17.8988 C   0  0  0  0  0  0
  -45.5204    1.7412   19.9296 C   0  0  0  0  0  0
  -47.7163    0.5128   20.2108 C   0  0  0  0  0  0
  -44.8098   -0.1488   16.9665 C   0  0  0  0  0  0
  -44.8875   -2.5943   17.3856 C   0  0  0  0  0  0
  -48.9665   -1.2297   17.2602 C   0  0  0  0  0  0
  -44.7514    1.3180   21.1942 C   0  0  0  0  0  0
  -47.5250   -0.3380   21.4807 C   0  0  0  0  0  0
  -48.5109   -2.3185   17.9816 C   0  0  0  0  0  0
  -49.9947   -0.4627   17.7719 C   0  0  0  0  0  0
  -49.0785   -2.6346   19.1936 C   0  0  0  0  0  0
  -50.5627   -0.7807   18.9834 C   0  0  0  0  0  0
  -50.1057   -1.8664   19.6942 C   0  0  0  0  0  0
  -52.7837   -2.4719   15.5697 H   0  0  0  0  0  0
  -52.3147   -2.4702   13.4349 H   0  0  0  0  0  0
  -45.7204   -0.8196   14.8745 H   0  0  0  0  0  0
  -50.1291   -6.6519   21.7395 H   0  0  0  0  0  0
  -49.0834   -6.9698   20.6790 H   0  0  0  0  0  0
  1  5  1  0  0  0
  1  6  1  0  0  0
  1  7  2  0  0  0
  1 12  1  0  0  0
  2 16  1  0  0  0
  2 19  1  0  0  0
  3 17  1  0  0  0
  3 43  1  0  0  0
  4 18  1  0  0  0
  4 44  1  0  0  0
  5 21  1  0  0  0
  6 35  1  0  0  0
  8 30  1  0  0  0
  8 33  1  0  0  0
  9 33  2  0  0  0
 10 11  1  0  0  0
 10 20  1  0  0  0
 10 24  1  0  0  0
 11 28  2  0  0  0
 12 27  1  0  0  0
 12 45  1  0  0  0
 13 22  3  0  0  0
 14 26  2  0  0  0
 14 28  1  0  0  0
 15 26  1  0  0  0
 15 46  1  0  0  0
 15 47  1  0  0  0
 16 17  1  0  0  0
 16 20  1  0  0  0
 16 22  1  0  0  0
 17 18  1  0  0  0
 18 19  1  0  0  0
 19 21  1  0  0  0
 20 23  2  0  0  0
 23 25  1  0  0  0
 24 25  2  0  0  0
 24 26  1  0  0  0
 27 33  1  0  0  0
 27 34  1  0  0  0
 29 30  1  0  0  0
 29 31  1  0  0  0
 29 32  1  0  0  0
 31 36  1  0  0  0
 32 37  1  0  0  0
 35 38  2  0  0  0
 35 39  1  0  0  0
 38 40  1  0  0  0
 39 41  2  0  0  0
 40 42  2  0  0  0
 41 42  1  0  0  0
M  END
>  <CHROM.0>
-56.74246347,-71.27543383,59.76273693

>  <CHROM.1>
-118.10947148,142.51412482,159.52218872,-61.16093787,-65.50026129,66.41464558
14.71892510,64.77230043,-141.82207688,-132.41636862,176.01754991,-96.00313606
88.05558351,59.15356126,-159.57822534,154.65458324,-48.76459685,-2.39776118
17.16596879,-0.20656121,-0.73255173,-1.52021029

>  <HEADER>
                                                                          

>  <MASTER>
        0    0    0    0    0    0    0    0   77    0   77    0          

>  <Name>
Remdesivir.pdb

>  <RI>
-6.67806e+08

>  <Rbt.Current_Directory>
/root/miniconda3/envs/rdock/share/rxdock-2013.1.1_148c5bd1-0/data/ligands/prepped_ligands/Remdesivir

>  <Rbt.Executable>
rbdock/0.1.0

>  <Rbt.Library>
librxdock.so/0.1.0

>  <Rbt.Parameter_File>
/root/miniconda3/envs/rdock/share/rxdock-2013.1.1_148c5bd1-0/data/scripts/dock.prm

>  <Rbt.Receptor>
def.prm

>  <SCORE>
-15.0731

>  <SCORE.INTER>
-3.60974

>  <SCORE.INTER.CONST>
1

>  <SCORE.INTER.POLAR>
-0.578117

>  <SCORE.INTER.REPUL>
0.220194

>  <SCORE.INTER.ROT>
14

>  <SCORE.INTER.VDW>
-22.1451

>  <SCORE.INTER.norm>
-0.0859462

>  <SCORE.INTRA>
-10.6277

>  <SCORE.INTRA.DIHEDRAL>
-7.02135

>  <SCORE.INTRA.DIHEDRAL.0>
33.3194

>  <SCORE.INTRA.POLAR>
0

>  <SCORE.INTRA.POLAR.0>
0

>  <SCORE.INTRA.REPUL>
-0.188091

>  <SCORE.INTRA.REPUL.0>
0.188091

>  <SCORE.INTRA.VDW>
-6.17653

>  <SCORE.INTRA.VDW.0>
-0.0599272

>  <SCORE.INTRA.norm>
-0.25304

>  <SCORE.RESTR>
0

>  <SCORE.RESTR.CAVITY>
0

>  <SCORE.RESTR.norm>
0

>  <SCORE.SYSTEM>
-0.835721

>  <SCORE.SYSTEM.CONST>
0

>  <SCORE.SYSTEM.DIHEDRAL>
0.633631

>  <SCORE.SYSTEM.POLAR>
-0.000480188

>  <SCORE.SYSTEM.VDW>
-1.1509

>  <SCORE.SYSTEM.norm>
-0.0198981

>  <SCORE.heavy>
42

>  <SCORE.norm>
-0.358884

>  <TITLE>
    121304016_D                                                           

$$$$
Remdesivir.pdb
  RxDock  02242112053D
librxdock.so/0.1.0
 47 50  0  0  0  0  0  0  0  0999 V2000
  -49.7845   -3.5539   15.7199 P   0  0  0  0  0  0
  -52.8362   -3.8756   17.2257 O   0  0  0  0  0  0
  -51.2328   -2.2923   20.0350 O   0  0  0  0  0  0
  -52.3494   -0.6857   18.2805 O   0  0  0  0  0  0
  -51.2422   -3.6188   15.0392 O   0  0  0  0  0  0
  -49.9751   -4.3982   17.0820 O   0  0  0  0  0  0
  -48.7607   -4.2139   14.8336 O   0  0  0  0  0  0
  -47.0664   -1.2391   16.3656 O   0  0  0  0  0  0
  -46.7574   -0.2403   14.3747 O   0  0  0  0  0  0
  -50.9463   -5.5502   19.8489 N   0  0  0  0  0  0
  -50.1203   -4.7269   20.5612 N   0  0  0  0  0  0
  -49.3790   -2.1261   15.9730 N   0  0  0  0  0  0
  -54.5202   -3.3357   20.0734 N   0  0  0  0  0  0
  -48.9945   -6.6317   21.4770 N   0  0  0  0  0  0
  -49.6307   -8.7830   20.9000 N   0  0  0  0  0  0
  -52.4449   -3.9353   18.6097 C   0  0  0  0  0  0
  -51.3399   -2.8651   18.7224 C   0  0  0  0  0  0
  -51.7029   -1.8100   17.6652 C   0  0  0  0  0  0
  -52.6841   -2.5344   16.7244 C   0  0  0  0  0  0
  -51.9715   -5.3339   18.9870 C   0  0  0  0  0  0
  -52.1775   -2.5523   15.2722 C   0  0  0  0  0  0
  -53.6174   -3.5970   19.4353 C   0  0  0  0  0  0
  -52.4792   -6.5007   18.5390 C   0  0  0  0  0  0
  -50.8254   -6.9014   19.9269 C   0  0  0  0  0  0
  -51.7428   -7.5239   19.1429 C   0  0  0  0  0  0
  -49.8126   -7.4266   20.7727 C   0  0  0  0  0  0
  -48.8049   -1.4843   14.7844 C   0  0  0  0  0  0
  -49.2089   -5.2862   21.3212 C   0  0  0  0  0  0
  -45.4695   -1.1530   18.2635 C   0  0  0  0  0  0
  -45.7877   -0.7438   16.8075 C   0  0  0  0  0  0
  -43.9758   -0.8834   18.5577 C   0  0  0  0  0  0
  -46.3525   -0.3496   19.2478 C   0  0  0  0  0  0
  -47.4435   -0.9194   15.1159 C   0  0  0  0  0  0
  -49.7316   -0.3381   14.3488 C   0  0  0  0  0  0
  -49.3456   -5.5947   17.2872 C   0  0  0  0  0  0
  -43.6213    0.6084   18.4228 C   0  0  0  0  0  0
  -47.8176   -0.8240   19.2092 C   0  0  0  0  0  0
  -49.9023   -6.7866   16.8593 C   0  0  0  0  0  0
  -48.1237   -5.6125   17.9305 C   0  0  0  0  0  0
  -49.2466   -7.9758   17.0754 C   0  0  0  0  0  0
  -47.4695   -6.8026   18.1475 C   0  0  0  0  0  0
  -48.0304   -7.9842   17.7210 C   0  0  0  0  0  0
  -52.0938   -1.8522   20.3141 H   0  0  0  0  0  0
  -51.7310   -0.2099   18.9145 H   0  0  0  0  0  0
  -48.7043   -2.0906   16.7458 H   0  0  0  0  0  0
  -48.9975   -9.0908   21.4276 H   0  0  0  0  0  0
  -50.1431   -9.3460   20.4571 H   0  0  0  0  0  0
  1  5  1  0  0  0
  1  6  1  0  0  0
  1  7  2  0  0  0
  1 12  1  0  0  0
  2 16  1  0  0  0
  2 19  1  0  0  0
  3 17  1  0  0  0
  3 43  1  0  0  0
  4 18  1  0  0  0
  4 44  1  0  0  0
  5 21  1  0  0  0
  6 35  1  0  0  0
  8 30  1  0  0  0
  8 33  1  0  0  0
  9 33  2  0  0  0
 10 11  1  0  0  0
 10 20  1  0  0  0
 10 24  1  0  0  0
 11 28  2  0  0  0
 12 27  1  0  0  0
 12 45  1  0  0  0
 13 22  3  0  0  0
 14 26  2  0  0  0
 14 28  1  0  0  0
 15 26  1  0  0  0
 15 46  1  0  0  0
 15 47  1  0  0  0
 16 17  1  0  0  0
 16 20  1  0  0  0
 16 22  1  0  0  0
 17 18  1  0  0  0
 18 19  1  0  0  0
 19 21  1  0  0  0
 20 23  2  0  0  0
 23 25  1  0  0  0
 24 25  2  0  0  0
 24 26  1  0  0  0
 27 33  1  0  0  0
 27 34  1  0  0  0
 29 30  1  0  0  0
 29 31  1  0  0  0
 29 32  1  0  0  0
 31 36  1  0  0  0
 32 37  1  0  0  0
 35 38  2  0  0  0
 35 39  1  0  0  0
 38 40  1  0  0  0
 39 41  2  0  0  0
 40 42  2  0  0  0
 41 42  1  0  0  0
M  END
>  <CHROM.0>
59.73723107,-63.38833809,173.32359770

>  <CHROM.1>
94.20936278,113.08153751,-82.94299400,-59.51079326,64.10471874,-69.26587219
-86.86506964,179.08236009,-0.28259761,-125.47562810,143.11584386,-36.33870675
4.95350950,166.84954168,61.58084822,72.38690172,-49.61507947,-3.67135846
17.82092883,0.94838036,-0.15911399,-0.57734200

>  <HEADER>
                                                                          

>  <MASTER>
        0    0    0    0    0    0    0    0   77    0   77    0          

>  <Name>
Remdesivir.pdb

>  <RI>
-6.67806e+08

>  <Rbt.Current_Directory>
/root/miniconda3/envs/rdock/share/rxdock-2013.1.1_148c5bd1-0/data/ligands/prepped_ligands/Remdesivir

>  <Rbt.Executable>
rbdock/0.1.0

>  <Rbt.Library>
librxdock.so/0.1.0

>  <Rbt.Parameter_File>
/root/miniconda3/envs/rdock/share/rxdock-2013.1.1_148c5bd1-0/data/scripts/dock.prm

>  <Rbt.Receptor>
def.prm

>  <SCORE>
-17.2208

>  <SCORE.INTER>
-0.831256

>  <SCORE.INTER.CONST>
1

>  <SCORE.INTER.POLAR>
-0.390807

>  <SCORE.INTER.REPUL>
0.107878

>  <SCORE.INTER.ROT>
14

>  <SCORE.INTER.VDW>
-19.4419

>  <SCORE.INTER.norm>
-0.0197918

>  <SCORE.INTRA>
-15.7536

>  <SCORE.INTRA.DIHEDRAL>
-14.8448

>  <SCORE.INTRA.DIHEDRAL.0>
33.3194

>  <SCORE.INTRA.POLAR>
-0.315616

>  <SCORE.INTRA.POLAR.0>
0

>  <SCORE.INTRA.REPUL>
-0.188091

>  <SCORE.INTRA.REPUL.0>
0.188091

>  <SCORE.INTRA.VDW>
-6.31767

>  <SCORE.INTRA.VDW.0>
-0.0599272

>  <SCORE.INTRA.norm>
-0.375087

>  <SCORE.RESTR>
0.396585

>  <SCORE.RESTR.CAVITY>
0.396585

>  <SCORE.RESTR.norm>
0.0094425

>  <SCORE.SYSTEM>
-1.0325

>  <SCORE.SYSTEM.CONST>
0

>  <SCORE.SYSTEM.DIHEDRAL>
0.171268

>  <SCORE.SYSTEM.VDW>
-1.11813

>  <SCORE.SYSTEM.norm>
-0.0245833

>  <SCORE.heavy>
42

>  <SCORE.norm>
-0.410019

>  <TITLE>
    121304016_D                                                           

$$$$
Remdesivir.pdb
  RxDock  02242112053D
librxdock.so/0.1.0
 47 50  0  0  0  0  0  0  0  0999 V2000
  -50.1770   -4.3359   16.4124 P   0  0  0  0  0  0
  -47.1310   -2.3371   17.9196 O   0  0  0  0  0  0
  -44.1055   -1.5567   16.1289 O   0  0  0  0  0  0
  -45.9729   -2.8023   14.7624 O   0  0  0  0  0  0
  -49.1060   -4.6622   17.5694 O   0  0  0  0  0  0
  -50.2750   -2.7253   16.4436 O   0  0  0  0  0  0
  -49.6648   -4.8035   15.0751 O   0  0  0  0  0  0
  -52.0811   -3.1946   19.4505 O   0  0  0  0  0  0
  -52.8762   -5.2963   19.3664 O   0  0  0  0  0  0
  -44.1510   -0.6719   19.2764 N   0  0  0  0  0  0
  -43.0532   -0.6593   18.4626 N   0  0  0  0  0  0
  -51.4944   -5.0042   16.7035 N   0  0  0  0  0  0
  -46.7710    0.6181   16.3789 N   0  0  0  0  0  0
  -41.6996    0.1066   20.2834 N   0  0  0  0  0  0
  -42.6170    0.4715   22.3789 N   0  0  0  0  0  0
  -45.9980   -1.4668   17.7445 C   0  0  0  0  0  0
  -44.9957   -2.3287   16.9499 C   0  0  0  0  0  0
  -45.8681   -3.2779   16.1128 C   0  0  0  0  0  0
  -47.2470   -3.2325   16.7979 C   0  0  0  0  0  0
  -45.4554   -0.9942   19.0880 C   0  0  0  0  0  0
  -47.7022   -4.6267   17.2614 C   0  0  0  0  0  0
  -46.4355   -0.2898   16.9738 C   0  0  0  0  0  0
  -46.1604   -0.8370   20.2274 C   0  0  0  0  0  0
  -44.0594   -0.3056   20.5817 C   0  0  0  0  0  0
  -45.2641   -0.3904   21.2026 C   0  0  0  0  0  0
  -42.7855    0.0898   21.0693 C   0  0  0  0  0  0
  -52.4729   -4.0857   17.2977 C   0  0  0  0  0  0
  -41.9108   -0.2817   18.9852 C   0  0  0  0  0  0
  -50.9144   -1.0041   19.4292 C   0  0  0  0  0  0
  -51.7613   -2.0379   18.6531 C   0  0  0  0  0  0
  -49.5273   -1.6098   19.7447 C   0  0  0  0  0  0
  -50.7466    0.2849   18.5899 C   0  0  0  0  0  0
  -52.5163   -4.2838   18.7948 C   0  0  0  0  0  0
  -53.8587   -4.3964   16.7098 C   0  0  0  0  0  0
  -49.8592   -1.9533   15.3941 C   0  0  0  0  0  0
  -49.5950   -2.6451   20.8818 C   0  0  0  0  0  0
  -52.0473    1.1095   18.5541 C   0  0  0  0  0  0
  -50.3331   -0.6666   15.2115 C   0  0  0  0  0  0
  -48.9408   -2.4681   14.5004 C   0  0  0  0  0  0
  -49.8960    0.0896   14.1495 C   0  0  0  0  0  0
  -48.5056   -1.7114   13.4376 C   0  0  0  0  0  0
  -48.9830   -0.4333   13.2613 C   0  0  0  0  0  0
  -43.5254   -0.9516   16.6858 H   0  0  0  0  0  0
  -46.4252   -3.4775   14.1707 H   0  0  0  0  0  0
  -51.3451   -5.8038   17.3297 H   0  0  0  0  0  0
  -41.8204    0.7123   22.6642 H   0  0  0  0  0  0
  -43.3004    0.4766   22.9343 H   0  0  0  0  0  0
  1  5  1  0  0  0
  1  6  1  0  0  0
  1  7  2  0  0  0
  1 12  1  0  0  0
  2 16  1  0  0  0
  2 19  1  0  0  0
  3 17  1  0  0  0
  3 43  1  0  0  0
  4 18  1  0  0  0
  4 44  1  0  0  0
  5 21  1  0  0  0
  6 35  1  0  0  0
  8 30  1  0  0  0
  8 33  1  0  0  0
  9 33  2  0  0  0
 10 11  1  0  0  0
 10 20  1  0  0  0
 10 24  1  0  0  0
 11 28  2  0  0  0
 12 27  1  0  0  0
 12 45  1  0  0  0
 13 22  3  0  0  0
 14 26  2  0  0  0
 14 28  1  0  0  0
 15 26  1  0  0  0
 15 46  1  0  0  0
 15 47  1  0  0  0
 16 17  1  0  0  0
 16 20  1  0  0  0
 16 22  1  0  0  0
 17 18  1  0  0  0
 18 19  1  0  0  0
 19 21  1  0  0  0
 20 23  2  0  0  0
 23 25  1  0  0  0
 24 25  2  0  0  0
 24 26  1  0  0  0
 27 33  1  0  0  0
 27 34  1  0  0  0
 29 30  1  0  0  0
 29 31  1  0  0  0
 29 32  1  0  0  0
 31 36  1  0  0  0
 32 37  1  0  0  0
 35 38  2  0  0  0
 35 39  1  0  0  0
 38 40  1  0  0  0
 39 41  2  0  0  0
 40 42  2  0  0  0
 41 42  1  0  0  0
M  END
>  <CHROM.0>
61.62432238,60.44556925,50.43694105

>  <CHROM.1>
-85.03832041,114.50300135,99.58001764,62.77053262,171.66332400,61.29716531
157.84094687,-163.95427462,-176.41711213,-99.60895992,151.28783627,76.28710272
114.60925924,66.00106044,-74.91862785,73.86975897,-48.09297406,-2.04749078
17.68222473,-2.80744575,0.31088742,1.40888674

>  <HEADER>
                                                                          

>  <MASTER>
        0    0    0    0    0    0    0    0   77    0   77    0          

>  <Name>
Remdesivir.pdb

>  <RI>
-6.67806e+08

>  <Rbt.Current_Directory>
/root/miniconda3/envs/rdock/share/rxdock-2013.1.1_148c5bd1-0/data/ligands/prepped_ligands/Remdesivir

>  <Rbt.Executable>
rbdock/0.1.0

>  <Rbt.Library>
librxdock.so/0.1.0

>  <Rbt.Parameter_File>
/root/miniconda3/envs/rdock/share/rxdock-2013.1.1_148c5bd1-0/data/scripts/dock.prm

>  <Rbt.Receptor>
def.prm

>  <SCORE>
-16.5857

>  <SCORE.INTER>
-3.79334

>  <SCORE.INTER.CONST>
1

>  <SCORE.INTER.POLAR>
-1.25569

>  <SCORE.INTER.REPUL>
0.831643

>  <SCORE.INTER.ROT>
14

>  <SCORE.INTER.VDW>
-23.0822

>  <SCORE.INTER.norm>
-0.0903176

>  <SCORE.INTRA>
-12.2191

>  <SCORE.INTRA.DIHEDRAL>
-18.101

>  <SCORE.INTRA.DIHEDRAL.0>
33.3194

>  <SCORE.INTRA.POLAR>
-0.80492

>  <SCORE.INTRA.POLAR.0>
0

>  <SCORE.INTRA.REPUL>
-0.188091

>  <SCORE.INTRA.REPUL.0>
0.188091

>  <SCORE.INTRA.VDW>
0.508563

>  <SCORE.INTRA.VDW.0>
-0.0599272

>  <SCORE.INTRA.norm>
-0.290932

>  <SCORE.RESTR>
0.278866

>  <SCORE.RESTR.CAVITY>
0.278866

>  <SCORE.RESTR.norm>
0.00663966

>  <SCORE.SYSTEM>
-0.852098

>  <SCORE.SYSTEM.CONST>
0

>  <SCORE.SYSTEM.DIHEDRAL>
0.234925

>  <SCORE.SYSTEM.VDW>
-0.969561

>  <SCORE.SYSTEM.norm>
-0.020288

>  <SCORE.heavy>
42

>  <SCORE.norm>
-0.394898

>  <TITLE>
    121304016_D                                                           

$$$$
Remdesivir.pdb
  RxDock  02242112053D
librxdock.so/0.1.0
 47 50  0  0  0  0  0  0  0  0999 V2000
  -49.1088   -2.0170   17.7637 P   0  0  0  0  0  0
  -51.3907   -5.5806   19.2260 O   0  0  0  0  0  0
  -49.4425   -8.4239   18.1819 O   0  0  0  0  0  0
  -48.4777   -7.0324   20.1915 O   0  0  0  0  0  0
  -49.2918   -3.5355   18.2666 O   0  0  0  0  0  0
  -48.1398   -2.1669   16.4818 O   0  0  0  0  0  0
  -50.4363   -1.4362   17.3515 O   0  0  0  0  0  0
  -46.2633   -0.0793   19.6871 O   0  0  0  0  0  0
  -46.0833    1.2110   17.8542 O   0  0  0  0  0  0
  -52.6424   -5.9939   16.6695 N   0  0  0  0  0  0
  -52.2083   -4.7013   16.5780 N   0  0  0  0  0  0
  -48.5076   -1.1657   18.8504 N   0  0  0  0  0  0
  -51.9883   -8.6227   20.5007 N   0  0  0  0  0  0
  -53.6392   -4.3436   14.6916 N   0  0  0  0  0  0
  -54.9877   -6.0431   13.8797 N   0  0  0  0  0  0
  -51.3545   -6.8983   18.6477 C   0  0  0  0  0  0
  -49.8879   -7.0587   18.1978 C   0  0  0  0  0  0
  -49.0766   -6.2033   19.1842 C   0  0  0  0  0  0
  -50.1185   -5.2652   19.8222 C   0  0  0  0  0  0
  -52.3539   -7.0240   17.5041 C   0  0  0  0  0  0
  -49.7676   -3.7842   19.6002 C   0  0  0  0  0  0
  -51.7129   -7.8711   19.6945 C   0  0  0  0  0  0
  -53.0614   -8.1244   17.1744 C   0  0  0  0  0  0
  -53.5619   -6.4871   15.7992 C   0  0  0  0  0  0
  -53.8481   -7.7867   16.0694 C   0  0  0  0  0  0
  -54.0550   -5.6139   14.7935 C   0  0  0  0  0  0
  -48.2261    0.2034   18.4028 C   0  0  0  0  0  0
  -52.7097   -3.9557   15.6223 C   0  0  0  0  0  0
  -43.9103   -0.2591   18.9182 C   0  0  0  0  0  0
  -44.8906    0.2066   20.0186 C   0  0  0  0  0  0
  -42.4665    0.1159   19.3247 C   0  0  0  0  0  0
  -44.0199   -1.7898   18.7201 C   0  0  0  0  0  0
  -46.7578    0.5089   18.5847 C   0  0  0  0  0  0
  -49.0515    1.1791   19.2567 C   0  0  0  0  0  0
  -48.5620   -2.7476   15.3179 C   0  0  0  0  0  0
  -42.2460    1.6393   19.3299 C   0  0  0  0  0  0
  -43.3852   -2.2343   17.3888 C   0  0  0  0  0  0
  -48.1669   -2.2631   14.0840 C   0  0  0  0  0  0
  -49.3965   -3.8465   15.3764 C   0  0  0  0  0  0
  -48.6035   -2.8678   12.9288 C   0  0  0  0  0  0
  -49.8339   -4.4496   14.2204 C   0  0  0  0  0  0
  -49.4384   -3.9606   12.9968 C   0  0  0  0  0  0
  -49.4716   -8.8296   19.1024 H   0  0  0  0  0  0
  -47.7982   -7.6578   19.7942 H   0  0  0  0  0  0
  -47.6442   -1.6024   19.1933 H   0  0  0  0  0  0
  -55.2830   -5.4882   13.2642 H   0  0  0  0  0  0
  -55.2920   -6.8691   13.9061 H   0  0  0  0  0  0
  1  5  1  0  0  0
  1  6  1  0  0  0
  1  7  2  0  0  0
  1 12  1  0  0  0
  2 16  1  0  0  0
  2 19  1  0  0  0
  3 17  1  0  0  0
  3 43  1  0  0  0
  4 18  1  0  0  0
  4 44  1  0  0  0
  5 21  1  0  0  0
  6 35  1  0  0  0
  8 30  1  0  0  0
  8 33  1  0  0  0
  9 33  2  0  0  0
 10 11  1  0  0  0
 10 20  1  0  0  0
 10 24  1  0  0  0
 11 28  2  0  0  0
 12 27  1  0  0  0
 12 45  1  0  0  0
 13 22  3  0  0  0
 14 26  2  0  0  0
 14 28  1  0  0  0
 15 26  1  0  0  0
 15 46  1  0  0  0
 15 47  1  0  0  0
 16 17  1  0  0  0
 16 20  1  0  0  0
 16 22  1  0  0  0
 17 18  1  0  0  0
 18 19  1  0  0  0
 19 21  1  0  0  0
 20 23  2  0  0  0
 23 25  1  0  0  0
 24 25  2  0  0  0
 24 26  1  0  0  0
 27 33  1  0  0  0
 27 34  1  0  0  0
 29 30  1  0  0  0
 29 31  1  0  0  0
 29 32  1  0  0  0
 31 36  1  0  0  0
 32 37  1  0  0  0
 35 38  2  0  0  0
 35 39  1  0  0  0
 38 40  1  0  0  0
 39 41  2  0  0  0
 40 42  2  0  0  0
 41 42  1  0  0  0
M  END
>  <CHROM.0>
-166.23823952,-60.70804658,59.50907114

>  <CHROM.1>
162.09605646,69.35672132,175.56737956,-62.33428482,64.91147226,169.79520888
142.10341224,-61.69539919,2.91575059,-121.91808628,34.56071790,-77.58218251
-35.49513530,178.41104763,-67.53546354,163.47371438,-49.27515188,-3.62447863
17.52178608,0.31439692,-0.68553967,-0.81021204

>  <HEADER>
                                                                          

>  <MASTER>
        0    0    0    0    0    0    0    0   77    0   77    0          

>  <Name>
Remdesivir.pdb

>  <RI>
-6.67806e+08

>  <Rbt.Current_Directory>
/root/miniconda3/envs/rdock/share/rxdock-2013.1.1_148c5bd1-0/data/ligands/prepped_ligands/Remdesivir

>  <Rbt.Executable>
rbdock/0.1.0

>  <Rbt.Library>
librxdock.so/0.1.0

>  <Rbt.Parameter_File>
/root/miniconda3/envs/rdock/share/rxdock-2013.1.1_148c5bd1-0/data/scripts/dock.prm

>  <Rbt.Receptor>
def.prm

>  <SCORE>
-26.046

>  <SCORE.INTER>
-8.17195

>  <SCORE.INTER.CONST>
1

>  <SCORE.INTER.POLAR>
0

>  <SCORE.INTER.REPUL>
0

>  <SCORE.INTER.ROT>
14

>  <SCORE.INTER.VDW>
-27.5719

>  <SCORE.INTER.norm>
-0.19457

>  <SCORE.INTRA>
-17.1074

>  <SCORE.INTRA.DIHEDRAL>
-23.0929

>  <SCORE.INTRA.DIHEDRAL.0>
33.3194

>  <SCORE.INTRA.POLAR>
-0.174321

>  <SCORE.INTRA.POLAR.0>
0

>  <SCORE.INTRA.REPUL>
-0.188091

>  <SCORE.INTRA.REPUL.0>
0.188091

>  <SCORE.INTRA.VDW>
-4.02777

>  <SCORE.INTRA.VDW.0>
-0.0599272

>  <SCORE.INTRA.norm>
-0.407318

>  <SCORE.RESTR>
0

>  <SCORE.RESTR.CAVITY>
0

>  <SCORE.RESTR.norm>
0

>  <SCORE.SYSTEM>
-0.766735

>  <SCORE.SYSTEM.CONST>
0

>  <SCORE.SYSTEM.DIHEDRAL>
0.441753

>  <SCORE.SYSTEM.VDW>
-0.987611

>  <SCORE.SYSTEM.norm>
-0.0182556

>  <SCORE.heavy>
42

>  <SCORE.norm>
-0.620144

>  <TITLE>
    121304016_D                                                           

$$$$
Remdesivir.pdb
  RxDock  02242112063D
librxdock.so/0.1.0
 47 50  0  0  0  0  0  0  0  0999 V2000
  -45.5109   -0.3117   20.4310 P   0  0  0  0  0  0
  -48.8616   -2.4983   18.9882 O   0  0  0  0  0  0
  -51.9441   -3.9088   20.2038 O   0  0  0  0  0  0
  -51.4706   -1.4109   20.8686 O   0  0  0  0  0  0
  -46.7257   -1.3137   20.0956 O   0  0  0  0  0  0
  -45.8136    0.9637   19.4895 O   0  0  0  0  0  0
  -45.5458    0.0891   21.8827 O   0  0  0  0  0  0
  -45.7948   -1.3093   17.4156 O   0  0  0  0  0  0
  -44.4638   -3.0804   17.8011 O   0  0  0  0  0  0
  -50.2049   -5.8669   18.1876 N   0  0  0  0  0  0
  -51.4760   -6.1579   18.5962 N   0  0  0  0  0  0
  -44.1870   -0.9597   20.1240 N   0  0  0  0  0  0
  -51.6478   -2.3751   17.1285 N   0  0  0  0  0  0
  -51.2146   -8.4138   17.8365 N   0  0  0  0  0  0
  -49.2356   -9.1211   16.8624 N   0  0  0  0  0  0
  -49.9439   -3.4285   18.8007 C   0  0  0  0  0  0
  -50.5475   -3.5746   20.2126 C   0  0  0  0  0  0
  -50.2867   -2.2223   20.8953 C   0  0  0  0  0  0
  -49.1805   -1.5719   20.0434 C   0  0  0  0  0  0
  -49.4425   -4.7449   18.2193 C   0  0  0  0  0  0
  -47.9297   -1.2493   20.8785 C   0  0  0  0  0  0
  -50.9052   -2.8331   17.8562 C   0  0  0  0  0  0
  -48.2272   -4.9724   17.6796 C   0  0  0  0  0  0
  -49.4218   -6.8134   17.6070 C   0  0  0  0  0  0
  -48.2036   -6.3113   17.2790 C   0  0  0  0  0  0
  -49.9698   -8.1131   17.4402 C   0  0  0  0  0  0
  -43.8508   -0.9055   18.6963 C   0  0  0  0  0  0
  -51.9123   -7.3807   18.4082 C   0  0  0  0  0  0
  -46.9291   -2.0955   15.3528 C   0  0  0  0  0  0
  -46.8143   -2.1821   16.8916 C   0  0  0  0  0  0
  -45.6695   -2.7185   14.7082 C   0  0  0  0  0  0
  -48.1929   -2.8463   14.8698 C   0  0  0  0  0  0
  -44.7010   -1.8939   17.9332 C   0  0  0  0  0  0
  -42.3699   -1.2800   18.5256 C   0  0  0  0  0  0
  -47.0838    1.2991   19.1096 C   0  0  0  0  0  0
  -44.4670   -1.7582   14.7462 C   0  0  0  0  0  0
  -48.4986   -2.5450   13.3904 C   0  0  0  0  0  0
  -47.7157    2.4219   19.6132 C   0  0  0  0  0  0
  -47.7478    0.5021   18.1980 C   0  0  0  0  0  0
  -48.9923    2.7382   19.2120 C   0  0  0  0  0  0
  -49.0252    0.8186   17.7986 C   0  0  0  0  0  0
  -49.6480    1.9357   18.3054 C   0  0  0  0  0  0
  -52.1081   -4.7858   19.7380 H   0  0  0  0  0  0
  -51.7963   -1.2697   19.9281 H   0  0  0  0  0  0
  -44.1989   -1.9362   20.4402 H   0  0  0  0  0  0
  -49.5905   -9.9206   16.7681 H   0  0  0  0  0  0
  -48.4126   -8.9727   16.5863 H   0  0  0  0  0  0
  1  5  1  0  0  0
  1  6  1  0  0  0
  1  7  2  0  0  0
  1 12  1  0  0  0
  2 16  1  0  0  0
  2 19  1  0  0  0
  3 17  1  0  0  0
  3 43  1  0  0  0
  4 18  1  0  0  0
  4 44  1  0  0  0
  5 21  1  0  0  0
  6 35  1  0  0  0
  8 30  1  0  0  0
  8 33  1  0  0  0
  9 33  2  0  0  0
 10 11  1  0  0  0
 10 20  1  0  0  0
 10 24  1  0  0  0
 11 28  2  0  0  0
 12 27  1  0  0  0
 12 45  1  0  0  0
 13 22  3  0  0  0
 14 26  2  0  0  0
 14 28  1  0  0  0
 15 26  1  0  0  0
 15 46  1  0  0  0
 15 47  1  0  0  0
 16 17  1  0  0  0
 16 20  1  0  0  0
 16 22  1  0  0  0
 17 18  1  0  0  0
 18 19  1  0  0  0
 19 21  1  0  0  0
 20 23  2  0  0  0
 23 25  1  0  0  0
 24 25  2  0  0  0
 24 26  1  0  0  0
 27 33  1  0  0  0
 27 34  1  0  0  0
 29 30  1  0  0  0
 29 31  1  0  0  0
 29 32  1  0  0  0
 31 36  1  0  0  0
 32 37  1  0  0  0
 35 38  2  0  0  0
 35 39  1  0  0  0
 38 40  1  0  0  0
 39 41  2  0  0  0
 40 42  2  0  0  0
 41 42  1  0  0  0
M  END
>  <CHROM.0>
-69.64000981,63.71026318,174.23829772

>  <CHROM.1>
-90.87835594,28.22645842,80.51212150,60.42731992,-57.10745567,146.42544041
109.21069881,-111.03673952,10.78347439,-73.95757252,166.97176762,30.64076122
95.23218741,69.37459848,-78.65065774,168.42002010,-48.01659076,-2.47959294
18.38037716,0.88402892,0.44445695,0.52795486

>  <HEADER>
                                                                          

>  <MASTER>
        0    0    0    0    0    0    0    0   77    0   77    0          

>  <Name>
Remdesivir.pdb

>  <RI>
-6.67806e+08

>  <Rbt.Current_Directory>
/root/miniconda3/envs/rdock/share/rxdock-2013.1.1_148c5bd1-0/data/ligands/prepped_ligands/Remdesivir

>  <Rbt.Executable>
rbdock/0.1.0

>  <Rbt.Library>
librxdock.so/0.1.0

>  <Rbt.Parameter_File>
/root/miniconda3/envs/rdock/share/rxdock-2013.1.1_148c5bd1-0/data/scripts/dock.prm

>  <Rbt.Receptor>
def.prm

>  <SCORE>
-26.1477

>  <SCORE.INTER>
-10.9601

>  <SCORE.INTER.CONST>
1

>  <SCORE.INTER.POLAR>
-0.874349

>  <SCORE.INTER.REPUL>
0.0556697

>  <SCORE.INTER.ROT>
14

>  <SCORE.INTER.VDW>
-27.6656

>  <SCORE.INTER.norm>
-0.260954

>  <SCORE.INTRA>
-14.4294

>  <SCORE.INTRA.DIHEDRAL>
-6.17271

>  <SCORE.INTRA.DIHEDRAL.0>
33.3194

>  <SCORE.INTRA.POLAR>
-0.977466

>  <SCORE.INTRA.POLAR.0>
0

>  <SCORE.INTRA.REPUL>
-0.188091

>  <SCORE.INTRA.REPUL.0>
0.188091

>  <SCORE.INTRA.VDW>
-7.07921

>  <SCORE.INTRA.VDW.0>
-0.0599272

>  <SCORE.INTRA.norm>
-0.343557

>  <SCORE.RESTR>
0.0981463

>  <SCORE.RESTR.CAVITY>
0.0981463

>  <SCORE.RESTR.norm>
0.00233682

>  <SCORE.SYSTEM>
-0.856408

>  <SCORE.SYSTEM.CONST>
0

>  <SCORE.SYSTEM.DIHEDRAL>
0.385119

>  <SCORE.SYSTEM.VDW>
-1.04897

>  <SCORE.SYSTEM.norm>
-0.0203907

>  <SCORE.heavy>
42

>  <SCORE.norm>
-0.622565

>  <TITLE>
    121304016_D                                                           

$$$$
Remdesivir.pdb
  RxDock  02242112063D
librxdock.so/0.1.0
 47 50  0  0  0  0  0  0  0  0999 V2000
  -52.7339   -3.2383   19.8687 P   0  0  0  0  0  0
  -48.3599   -0.7728   19.1680 O   0  0  0  0  0  0
  -48.1954    0.1978   15.7038 O   0  0  0  0  0  0
  -50.5474    0.4094   16.8567 O   0  0  0  0  0  0
  -51.8566   -2.0092   19.3102 O   0  0  0  0  0  0
  -51.7265   -3.9763   20.8912 O   0  0  0  0  0  0
  -53.9453   -2.7277   20.6043 O   0  0  0  0  0  0
  -51.5932   -3.3281   15.6854 O   0  0  0  0  0  0
  -53.7213   -4.0015   15.9583 O   0  0  0  0  0  0
  -45.1048    0.0305   18.4782 N   0  0  0  0  0  0
  -44.9894    1.3344   18.8705 N   0  0  0  0  0  0
  -53.1753   -4.1325   18.7406 N   0  0  0  0  0  0
  -47.5432    2.3627   18.3086 N   0  0  0  0  0  0
  -42.6206    1.0669   19.0979 N   0  0  0  0  0  0
  -41.6015   -0.9624   18.6410 N   0  0  0  0  0  0
  -47.5866   -0.2362   18.0789 C   0  0  0  0  0  0
  -48.3641   -0.6843   16.8245 C   0  0  0  0  0  0
  -49.8314   -0.7619   17.2762 C   0  0  0  0  0  0
  -49.7550   -0.8126   18.8138 C   0  0  0  0  0  0
  -46.1529   -0.7517   18.1167 C   0  0  0  0  0  0
  -50.4223   -2.0779   19.3789 C   0  0  0  0  0  0
  -47.5623    1.2311   18.2097 C   0  0  0  0  0  0
  -45.7405   -1.9990   17.8101 C   0  0  0  0  0  0
  -44.0127   -0.7727   18.3867 C   0  0  0  0  0  0
  -44.3536   -2.0233   17.9822 C   0  0  0  0  0  0
  -42.7497   -0.2104   18.7122 C   0  0  0  0  0  0
  -52.1159   -4.3531   17.7490 C   0  0  0  0  0  0
  -43.7895    1.7819   19.1551 C   0  0  0  0  0  0
  -50.7023   -2.2163   13.6532 C   0  0  0  0  0  0
  -51.9225   -2.8344   14.3725 C   0  0  0  0  0  0
  -50.4875   -0.7704   14.1569 C   0  0  0  0  0  0
  -49.4365   -3.0625   13.9287 C   0  0  0  0  0  0
  -52.5872   -3.8978   16.3878 C   0  0  0  0  0  0
  -51.7996   -5.8562   17.6940 C   0  0  0  0  0  0
  -51.5467   -5.3319   20.8795 C   0  0  0  0  0  0
  -49.8063    0.1144   13.0974 C   0  0  0  0  0  0
  -48.3267   -2.7707   12.9010 C   0  0  0  0  0  0
  -50.3065   -5.8940   20.6359 C   0  0  0  0  0  0
  -52.6265   -6.1578   21.1228 C   0  0  0  0  0  0
  -50.1523   -7.2604   20.6331 C   0  0  0  0  0  0
  -52.4715   -7.5243   21.1183 C   0  0  0  0  0  0
  -51.2353   -8.0761   20.8730 C   0  0  0  0  0  0
  -47.2224    0.3225   15.4789 H   0  0  0  0  0  0
  -50.1856    1.2371   17.2978 H   0  0  0  0  0  0
  -54.0001   -3.7284   18.2822 H   0  0  0  0  0  0
  -40.8275   -0.5974   18.8452 H   0  0  0  0  0  0
  -41.6348   -1.8066   18.3923 H   0  0  0  0  0  0
  1  5  1  0  0  0
  1  6  1  0  0  0
  1  7  2  0  0  0
  1 12  1  0  0  0
  2 16  1  0  0  0
  2 19  1  0  0  0
  3 17  1  0  0  0
  3 43  1  0  0  0
  4 18  1  0  0  0
  4 44  1  0  0  0
  5 21  1  0  0  0
  6 35  1  0  0  0
  8 30  1  0  0  0
  8 33  1  0  0  0
  9 33  2  0  0  0
 10 11  1  0  0  0
 10 20  1  0  0  0
 10 24  1  0  0  0
 11 28  2  0  0  0
 12 27  1  0  0  0
 12 45  1  0  0  0
 13 22  3  0  0  0
 14 26  2  0  0  0
 14 28  1  0  0  0
 15 26  1  0  0  0
 15 46  1  0  0  0
 15 47  1  0  0  0
 16 17  1  0  0  0
 16 20  1  0  0  0
 16 22  1  0  0  0
 17 18  1  0  0  0
 18 19  1  0  0  0
 19 21  1  0  0  0
 20 23  2  0  0  0
 23 25  1  0  0  0
 24 25  2  0  0  0
 24 26  1  0  0  0
 27 33  1  0  0  0
 27 34  1  0  0  0
 29 30  1  0  0  0
 29 31  1  0  0  0
 29 32  1  0  0  0
 31 36  1  0  0  0
 32 37  1  0  0  0
 35 38  2  0  0  0
 35 39  1  0  0  0
 38 40  1  0  0  0
 39 41  2  0  0  0
 40 42  2  0  0  0
 41 42  1  0  0  0
M  END
>  <CHROM.0>
45.10293429,65.24207238,57.21386274

>  <CHROM.1>
21.89563348,-132.79546399,41.35254101,55.34060378,-63.95625159,-179.42162755
119.58412673,-179.34808338,-0.14735656,-121.78721556,-107.33013480,166.89342024
142.99140667,-81.12059100,-152.43329780,161.61048093,-49.30877184,-2.21954826
17.96400873,-2.74998108,-0.47089138,-1.04896899

>  <HEADER>
                                                                          

>  <MASTER>
        0    0    0    0    0    0    0    0   77    0   77    0          

>  <Name>
Remdesivir.pdb

>  <RI>
-6.67806e+08

>  <Rbt.Current_Directory>
/root/miniconda3/envs/rdock/share/rxdock-2013.1.1_148c5bd1-0/data/ligands/prepped_ligands/Remdesivir

>  <Rbt.Executable>
rbdock/0.1.0

>  <Rbt.Library>
librxdock.so/0.1.0

>  <Rbt.Parameter_File>
/root/miniconda3/envs/rdock/share/rxdock-2013.1.1_148c5bd1-0/data/scripts/dock.prm

>  <Rbt.Receptor>
def.prm

>  <SCORE>
-28.3866

>  <SCORE.INTER>
-16.0552

>  <SCORE.INTER.CONST>
1

>  <SCORE.INTER.POLAR>
-2.86751

>  <SCORE.INTER.REPUL>
0

>  <SCORE.INTER.ROT>
14

>  <SCORE.INTER.VDW>
-25.7057

>  <SCORE.INTER.norm>
-0.382268

>  <SCORE.INTRA>
-11.6878

>  <SCORE.INTRA.DIHEDRAL>
-13.5001

>  <SCORE.INTRA.DIHEDRAL.0>
33.3194

>  <SCORE.INTRA.POLAR>
0

>  <SCORE.INTRA.POLAR.0>
0

>  <SCORE.INTRA.REPUL>
-0.188091

>  <SCORE.INTRA.REPUL.0>
0.188091

>  <SCORE.INTRA.VDW>
-3.99728

>  <SCORE.INTRA.VDW.0>
-0.0599272

>  <SCORE.INTRA.norm>
-0.278281

>  <SCORE.RESTR>
0.00433749

>  <SCORE.RESTR.CAVITY>
0.00433749

>  <SCORE.RESTR.norm>
0.000103274

>  <SCORE.SYSTEM>
-0.647959

>  <SCORE.SYSTEM.CONST>
0

>  <SCORE.SYSTEM.DIHEDRAL>
0.686608

>  <SCORE.SYSTEM.VDW>
-0.991263

>  <SCORE.SYSTEM.norm>
-0.0154276

>  <SCORE.heavy>
42

>  <SCORE.norm>
-0.675873

>  <TITLE>
    121304016_D                                                           

$$$$
Remdesivir.pdb
  RxDock  02242112063D
librxdock.so/0.1.0
 47 50  0  0  0  0  0  0  0  0999 V2000
  -51.1452   -5.8512   20.3280 P   0  0  0  0  0  0
  -49.5475   -1.4179   19.7595 O   0  0  0  0  0  0
  -49.6728   -1.7514   16.1759 O   0  0  0  0  0  0
  -51.3319   -3.2656   17.5398 O   0  0  0  0  0  0
  -49.7588   -5.0543   20.1408 O   0  0  0  0  0  0
  -50.6665   -7.3211   20.7917 O   0  0  0  0  0  0
  -51.9797   -5.2084   21.4049 O   0  0  0  0  0  0
  -52.8442   -6.0052   16.3706 O   0  0  0  0  0  0
  -50.6771   -5.6849   15.8624 O   0  0  0  0  0  0
  -46.8987   -0.3347   18.3865 N   0  0  0  0  0  0
  -46.3409   -1.5811   18.3311 N   0  0  0  0  0  0
  -51.9240   -5.8731   19.0396 N   0  0  0  0  0  0
  -51.5208    0.5769   17.9255 N   0  0  0  0  0  0
  -44.1524   -0.6105   18.2808 N   0  0  0  0  0  0
  -43.8665    1.6875   18.3367 N   0  0  0  0  0  0
  -49.3794   -0.8138   18.4638 C   0  0  0  0  0  0
  -49.2309   -2.0210   17.5154 C   0  0  0  0  0  0
  -50.0497   -3.1432   18.1735 C   0  0  0  0  0  0
  -50.2230   -2.6833   19.6333 C   0  0  0  0  0  0
  -48.1755    0.1204   18.4452 C   0  0  0  0  0  0
  -49.6489   -3.7063   20.6281 C   0  0  0  0  0  0
  -50.5887   -0.0285   18.1610 C   0  0  0  0  0  0
  -48.2056    1.4686   18.4833 C   0  0  0  0  0  0
  -46.1224    0.7804   18.3902 C   0  0  0  0  0  0
  -46.8787    1.9067   18.4479 C   0  0  0  0  0  0
  -44.7141    0.6055   18.3348 C   0  0  0  0  0  0
  -51.2710   -6.6776   18.0001 C   0  0  0  0  0  0
  -45.0325   -1.6622   18.2816 C   0  0  0  0  0  0
  -54.7223   -5.7829   14.7634 C   0  0  0  0  0  0
  -53.2162   -5.5808   15.0449 C   0  0  0  0  0  0
  -55.0289   -7.2954   14.6709 C   0  0  0  0  0  0
  -55.5657   -5.1436   15.8921 C   0  0  0  0  0  0
  -51.5296   -6.0663   16.6430 C   0  0  0  0  0  0
  -51.8620   -8.0961   18.0327 C   0  0  0  0  0  0
  -49.7773   -8.0584   20.0596 C   0  0  0  0  0  0
  -56.2235   -7.5864   13.7447 C   0  0  0  0  0  0
  -57.0677   -5.4318   15.7080 C   0  0  0  0  0  0
  -49.9365   -9.4220   19.8900 C   0  0  0  0  0  0
  -48.6998   -7.4258   19.4713 C   0  0  0  0  0  0
  -49.0295  -10.1393   19.1461 C   0  0  0  0  0  0
  -47.7923   -8.1446   18.7287 C   0  0  0  0  0  0
  -47.9562   -9.5008   18.5663 C   0  0  0  0  0  0
  -49.2297   -0.9286   15.8024 H   0  0  0  0  0  0
  -51.8313   -2.3931   17.5527 H   0  0  0  0  0  0
  -52.0588   -4.9134   18.7013 H   0  0  0  0  0  0
  -42.9966    1.5605   18.3031 H   0  0  0  0  0  0
  -44.1878    2.5068   18.3715 H   0  0  0  0  0  0
  1  5  1  0  0  0
  1  6  1  0  0  0
  1  7  2  0  0  0
  1 12  1  0  0  0
  2 16  1  0  0  0
  2 19  1  0  0  0
  3 17  1  0  0  0
  3 43  1  0  0  0
  4 18  1  0  0  0
  4 44  1  0  0  0
  5 21  1  0  0  0
  6 35  1  0  0  0
  8 30  1  0  0  0
  8 33  1  0  0  0
  9 33  2  0  0  0
 10 11  1  0  0  0
 10 20  1  0  0  0
 10 24  1  0  0  0
 11 28  2  0  0  0
 12 27  1  0  0  0
 12 45  1  0  0  0
 13 22  3  0  0  0
 14 26  2  0  0  0
 14 28  1  0  0  0
 15 26  1  0  0  0
 15 46  1  0  0  0
 15 47  1  0  0  0
 16 17  1  0  0  0
 16 20  1  0  0  0
 16 22  1  0  0  0
 17 18  1  0  0  0
 18 19  1  0  0  0
 19 21  1  0  0  0
 20 23  2  0  0  0
 23 25  1  0  0  0
 24 25  2  0  0  0
 24 26  1  0  0  0
 27 33  1  0  0  0
 27 34  1  0  0  0
 29 30  1  0  0  0
 29 31  1  0  0  0
 29 32  1  0  0  0
 31 36  1  0  0  0
 32 37  1  0  0  0
 35 38  2  0  0  0
 35 39  1  0  0  0
 38 40  1  0  0  0
 39 41  2  0  0  0
 40 42  2  0  0  0
 41 42  1  0  0  0
M  END
>  <CHROM.0>
60.18767312,-56.77903137,-134.62892789

>  <CHROM.1>
-137.13008134,-54.74155486,67.56108613,53.04483120,-55.80448518,-82.78201273
-139.71113231,169.95987230,5.80582255,-146.12916103,76.30873447,-150.81438295
-59.73225215,-69.30120390,-151.17525669,-175.05269733,-50.11983712,-4.06534731
18.14169657,-2.41536354,-0.49003988,-0.29199624

>  <HEADER>
                                                                          

>  <MASTER>
        0    0    0    0    0    0    0    0   77    0   77    0          

>  <Name>
Remdesivir.pdb

>  <RI>
-6.67806e+08

>  <Rbt.Current_Directory>
/root/miniconda3/envs/rdock/share/rxdock-2013.1.1_148c5bd1-0/data/ligands/prepped_ligands/Remdesivir

>  <Rbt.Executable>
rbdock/0.1.0

>  <Rbt.Library>
librxdock.so/0.1.0

>  <Rbt.Parameter_File>
/root/miniconda3/envs/rdock/share/rxdock-2013.1.1_148c5bd1-0/data/scripts/dock.prm

>  <Rbt.Receptor>
def.prm

>  <SCORE>
-12.4478

>  <SCORE.INTER>
-3.59255

>  <SCORE.INTER.CONST>
1

>  <SCORE.INTER.POLAR>
-1.04153

>  <SCORE.INTER.REPUL>
0

>  <SCORE.INTER.ROT>
14

>  <SCORE.INTER.VDW>
-19.4513

>  <SCORE.INTER.norm>
-0.0855369

>  <SCORE.INTRA>
-10.451

>  <SCORE.INTRA.DIHEDRAL>
-16.8849

>  <SCORE.INTRA.DIHEDRAL.0>
33.3194

>  <SCORE.INTRA.POLAR>
-0.936349

>  <SCORE.INTRA.POLAR.0>
0

>  <SCORE.INTRA.REPUL>
-0.188091

>  <SCORE.INTRA.REPUL.0>
0.188091

>  <SCORE.INTRA.VDW>
2.11548

>  <SCORE.INTRA.VDW.0>
-0.0599272

>  <SCORE.INTRA.norm>
-0.248834

>  <SCORE.RESTR>
0.440485

>  <SCORE.RESTR.CAVITY>
0.440485

>  <SCORE.RESTR.norm>
0.0104877

>  <SCORE.SYSTEM>
1.15526

>  <SCORE.SYSTEM.CONST>
0

>  <SCORE.SYSTEM.DIHEDRAL>
3.13751

>  <SCORE.SYSTEM.POLAR>
-0.000127451

>  <SCORE.SYSTEM.VDW>
-0.413062

>  <SCORE.SYSTEM.norm>
0.0275062

>  <SCORE.heavy>
42

>  <SCORE.norm>
-0.296377

>  <TITLE>
    121304016_D                                                           

$$$$
