Remdesivir.pdb
  RxDock  02242113093D
librxdock.so/0.1.0
 47 50  0  0  0  0  0  0  0  0999 V2000
  -51.4382   -4.1101   19.1757 P   0  0  0  0  0  0
  -47.6911   -0.8494   19.9310 O   0  0  0  0  0  0
  -48.1342    2.1735   18.0242 O   0  0  0  0  0  0
  -50.3192    1.0874   18.9998 O   0  0  0  0  0  0
  -50.8838   -2.6098   19.3603 O   0  0  0  0  0  0
  -50.5825   -4.9550   20.2522 O   0  0  0  0  0  0
  -52.9061   -4.1726   19.5085 O   0  0  0  0  0  0
  -49.7155   -3.3426   16.1140 O   0  0  0  0  0  0
  -47.7897   -4.2651   16.8189 O   0  0  0  0  0  0
  -44.7140    0.5489   20.1171 N   0  0  0  0  0  0
  -44.7466    0.9085   21.4351 N   0  0  0  0  0  0
  -51.2263   -4.5852   17.7628 N   0  0  0  0  0  0
  -47.4917    2.1507   21.4130 N   0  0  0  0  0  0
  -42.3531    0.8960   21.5082 N   0  0  0  0  0  0
  -41.1064    0.3675   19.6287 N   0  0  0  0  0  0
  -47.1599    0.4148   19.4932 C   0  0  0  0  0  0
  -48.0156    0.7614   18.2576 C   0  0  0  0  0  0
  -49.3810    0.1091   18.5274 C   0  0  0  0  0  0
  -49.0972   -0.9275   19.6308 C   0  0  0  0  0  0
  -45.6710    0.3084   19.1859 C   0  0  0  0  0  0
  -49.4799   -2.3510   19.1914 C   0  0  0  0  0  0
  -47.3473    1.3941   20.5779 C   0  0  0  0  0  0
  -45.1182   -0.0234   18.0009 C   0  0  0  0  0  0
  -43.5334    0.3568   19.4725 C   0  0  0  0  0  0
  -43.7317    0.0049   18.1762 C   0  0  0  0  0  0
  -42.3371    0.5427   20.2151 C   0  0  0  0  0  0
  -49.9066   -5.1967   17.5660 C   0  0  0  0  0  0
  -43.6001    1.0611   22.0543 C   0  0  0  0  0  0
  -49.8837   -1.4071   14.5696 C   0  0  0  0  0  0
  -48.9692   -2.4117   15.3065 C   0  0  0  0  0  0
  -49.0153   -0.4444   13.7274 C   0  0  0  0  0  0
  -50.8735   -2.1624   13.6509 C   0  0  0  0  0  0
  -49.0065   -4.2406   16.8190 C   0  0  0  0  0  0
  -50.0779   -6.4782   16.7348 C   0  0  0  0  0  0
  -50.8284   -6.2779   20.4959 C   0  0  0  0  0  0
  -49.8414    0.7146   13.1412 C   0  0  0  0  0  0
  -52.0504   -2.7517   14.4513 C   0  0  0  0  0  0
  -49.8763   -7.2485   20.2410 C   0  0  0  0  0  0
  -52.0526   -6.6522   21.0141 C   0  0  0  0  0  0
  -50.1481   -8.5717   20.4984 C   0  0  0  0  0  0
  -52.3239   -7.9761   21.2696 C   0  0  0  0  0  0
  -51.3728   -8.9360   21.0115 C   0  0  0  0  0  0
  -47.2350    2.5946   17.8602 H   0  0  0  0  0  0
  -50.3170    1.9074   18.4182 H   0  0  0  0  0  0
  -51.3443   -3.7994   17.1129 H   0  0  0  0  0  0
  -40.3757    0.4880   20.1035 H   0  0  0  0  0  0
  -41.0441    0.1358   18.7813 H   0  0  0  0  0  0
  1  5  1  0  0  0
  1  6  1  0  0  0
  1  7  2  0  0  0
  1 12  1  0  0  0
  2 16  1  0  0  0
  2 19  1  0  0  0
  3 17  1  0  0  0
  3 43  1  0  0  0
  4 18  1  0  0  0
  4 44  1  0  0  0
  5 21  1  0  0  0
  6 35  1  0  0  0
  8 30  1  0  0  0
  8 33  1  0  0  0
  9 33  2  0  0  0
 10 11  1  0  0  0
 10 20  1  0  0  0
 10 24  1  0  0  0
 11 28  2  0  0  0
 12 27  1  0  0  0
 12 45  1  0  0  0
 13 22  3  0  0  0
 14 26  2  0  0  0
 14 28  1  0  0  0
 15 26  1  0  0  0
 15 46  1  0  0  0
 15 47  1  0  0  0
 16 17  1  0  0  0
 16 20  1  0  0  0
 16 22  1  0  0  0
 17 18  1  0  0  0
 18 19  1  0  0  0
 19 21  1  0  0  0
 20 23  2  0  0  0
 23 25  1  0  0  0
 24 25  2  0  0  0
 24 26  1  0  0  0
 27 33  1  0  0  0
 27 34  1  0  0  0
 29 30  1  0  0  0
 29 31  1  0  0  0
 29 32  1  0  0  0
 31 36  1  0  0  0
 32 37  1  0  0  0
 35 38  2  0  0  0
 35 39  1  0  0  0
 38 40  1  0  0  0
 39 41  2  0  0  0
 40 42  2  0  0  0
 41 42  1  0  0  0
M  END
>  <CHROM.0>
-60.40195904,177.16496095,-60.22159864

>  <CHROM.1>
57.37040500,174.48463675,87.24214582,60.90655284,48.63523190,-170.47717258
117.37832856,-178.59244681,1.83914893,-104.55004249,-90.96077361,158.43039447
-22.75853860,179.98897426,-171.16662668,78.73368038,-48.52427552,-2.15780941
18.61036243,-2.74886321,-0.70928921,-0.85466273

>  <HEADER>
                                                                          

>  <MASTER>
        0    0    0    0    0    0    0    0   77    0   77    0          

>  <Name>
Remdesivir.pdb

>  <RI>
-1.04741e+09

>  <Rbt.Current_Directory>
/root/miniconda3/envs/rdock/share/rxdock-2013.1.1_148c5bd1-0/data/ligands/prepped_ligands/Remdesivir

>  <Rbt.Executable>
rbdock/0.1.0

>  <Rbt.Library>
librxdock.so/0.1.0

>  <Rbt.Parameter_File>
/root/miniconda3/envs/rdock/share/rxdock-2013.1.1_148c5bd1-0/data/scripts/dock.prm

>  <Rbt.Receptor>
def.prm

>  <SCORE>
-20.2677

>  <SCORE.INTER>
-3.61345

>  <SCORE.INTER.CONST>
1

>  <SCORE.INTER.POLAR>
-1.02588

>  <SCORE.INTER.REPUL>
0

>  <SCORE.INTER.ROT>
14

>  <SCORE.INTER.VDW>
-19.5254

>  <SCORE.INTER.norm>
-0.0860345

>  <SCORE.INTRA>
-16.0245

>  <SCORE.INTRA.DIHEDRAL>
-19.2956

>  <SCORE.INTRA.DIHEDRAL.0>
33.3194

>  <SCORE.INTRA.POLAR>
-0.301892

>  <SCORE.INTRA.POLAR.0>
0

>  <SCORE.INTRA.REPUL>
-0.188091

>  <SCORE.INTRA.REPUL.0>
0.188091

>  <SCORE.INTRA.VDW>
-4.40983

>  <SCORE.INTRA.VDW.0>
-0.0599272

>  <SCORE.INTRA.norm>
-0.381536

>  <SCORE.RESTR>
0.437528

>  <SCORE.RESTR.CAVITY>
0.437528

>  <SCORE.RESTR.norm>
0.0104173

>  <SCORE.SYSTEM>
-1.06723

>  <SCORE.SYSTEM.CONST>
0

>  <SCORE.SYSTEM.DIHEDRAL>
0.0407891

>  <SCORE.SYSTEM.POLAR>
-0.000205023

>  <SCORE.SYSTEM.VDW>
-1.08693

>  <SCORE.SYSTEM.norm>
-0.0254102

>  <SCORE.heavy>
42

>  <SCORE.norm>
-0.482564

>  <TITLE>
    121304016_D                                                           

$$$$
Remdesivir.pdb
  RxDock  02242113103D
librxdock.so/0.1.0
 47 50  0  0  0  0  0  0  0  0999 V2000
  -50.3188   -1.9444   18.5572 P   0  0  0  0  0  0
  -47.8496    0.7738   18.6685 O   0  0  0  0  0  0
  -45.4658   -1.3101   16.9526 O   0  0  0  0  0  0
  -47.1105    0.0640   15.4319 O   0  0  0  0  0  0
  -50.2965   -0.3376   18.6574 O   0  0  0  0  0  0
  -50.4775   -2.4080   20.0949 O   0  0  0  0  0  0
  -51.5026   -2.4041   17.7469 O   0  0  0  0  0  0
  -49.5766   -6.0393   17.9306 O   0  0  0  0  0  0
  -48.9083   -4.6546   19.5716 O   0  0  0  0  0  0
  -45.0137   -1.0333   20.2683 N   0  0  0  0  0  0
  -43.9714   -1.4280   19.4775 N   0  0  0  0  0  0
  -49.0519   -2.4552   17.9238 N   0  0  0  0  0  0
  -44.8012    1.9385   17.9022 N   0  0  0  0  0  0
  -42.8984   -2.4250   21.3720 N   0  0  0  0  0  0
  -43.8761   -2.3512   23.4706 N   0  0  0  0  0  0
  -46.5510    0.1531   18.6501 C   0  0  0  0  0  0
  -46.6995   -0.9716   17.6051 C   0  0  0  0  0  0
  -47.7490   -0.4502   16.6103 C   0  0  0  0  0  0
  -48.4590    0.6884   17.3667 C   0  0  0  0  0  0
  -46.1656   -0.3556   20.0339 C   0  0  0  0  0  0
  -49.9714    0.4373   17.4911 C   0  0  0  0  0  0
  -45.5637    1.1620   18.2281 C   0  0  0  0  0  0
  -46.8804   -0.2126   21.1691 C   0  0  0  0  0  0
  -45.0297   -1.3140   21.5977 C   0  0  0  0  0  0
  -46.1521   -0.8307   22.1896 C   0  0  0  0  0  0
  -43.9275   -2.0306   22.1351 C   0  0  0  0  0  0
  -49.2184   -3.7842   17.3235 C   0  0  0  0  0  0
  -42.9892   -2.0859   20.0463 C   0  0  0  0  0  0
  -50.0739   -8.4410   18.3102 C   0  0  0  0  0  0
  -49.2927   -7.1847   18.7571 C   0  0  0  0  0  0
  -49.5093   -9.6826   19.0382 C   0  0  0  0  0  0
  -51.5773   -8.2780   18.6377 C   0  0  0  0  0  0
  -49.2013   -4.8392   18.4047 C   0  0  0  0  0  0
  -48.0501   -4.0366   16.3571 C   0  0  0  0  0  0
  -51.4940   -3.2263   20.5040 C   0  0  0  0  0  0
  -49.5811   -9.5362   20.5688 C   0  0  0  0  0  0
  -52.2727   -7.3285   17.6437 C   0  0  0  0  0  0
  -52.8178   -2.9168   20.2486 C   0  0  0  0  0  0
  -51.1912   -4.3908   21.1819 C   0  0  0  0  0  0
  -53.8207   -3.7587   20.6682 C   0  0  0  0  0  0
  -52.1952   -5.2313   21.6026 C   0  0  0  0  0  0
  -53.5096   -4.9157   21.3467 C   0  0  0  0  0  0
  -44.7589   -1.5732   17.6190 H   0  0  0  0  0  0
  -47.7834    0.2879   14.7193 H   0  0  0  0  0  0
  -48.3024   -2.4831   18.6247 H   0  0  0  0  0  0
  -43.1862   -2.7967   23.7862 H   0  0  0  0  0  0
  -44.5287   -2.1143   24.0126 H   0  0  0  0  0  0
  1  5  1  0  0  0
  1  6  1  0  0  0
  1  7  2  0  0  0
  1 12  1  0  0  0
  2 16  1  0  0  0
  2 19  1  0  0  0
  3 17  1  0  0  0
  3 43  1  0  0  0
  4 18  1  0  0  0
  4 44  1  0  0  0
  5 21  1  0  0  0
  6 35  1  0  0  0
  8 30  1  0  0  0
  8 33  1  0  0  0
  9 33  2  0  0  0
 10 11  1  0  0  0
 10 20  1  0  0  0
 10 24  1  0  0  0
 11 28  2  0  0  0
 12 27  1  0  0  0
 12 45  1  0  0  0
 13 22  3  0  0  0
 14 26  2  0  0  0
 14 28  1  0  0  0
 15 26  1  0  0  0
 15 46  1  0  0  0
 15 47  1  0  0  0
 16 17  1  0  0  0
 16 20  1  0  0  0
 16 22  1  0  0  0
 17 18  1  0  0  0
 18 19  1  0  0  0
 19 21  1  0  0  0
 20 23  2  0  0  0
 23 25  1  0  0  0
 24 25  2  0  0  0
 24 26  1  0  0  0
 27 33  1  0  0  0
 27 34  1  0  0  0
 29 30  1  0  0  0
 29 31  1  0  0  0
 29 32  1  0  0  0
 31 36  1  0  0  0
 32 37  1  0  0  0
 35 38  2  0  0  0
 35 39  1  0  0  0
 38 40  1  0  0  0
 39 41  2  0  0  0
 40 42  2  0  0  0
 41 42  1  0  0  0
M  END
>  <CHROM.0>
124.29140168,71.15157080,42.65095952

>  <CHROM.1>
171.02931541,124.49457296,-156.97566075,56.63129446,171.93012091,-89.07892730
-54.20934708,165.10812946,-15.82301932,-77.74426807,176.97273507,-31.60998241
169.40478444,168.31022184,57.81634449,75.90954996,-48.42799587,-2.83875713
19.15717333,2.40746243,0.35515230,2.77787438

>  <HEADER>
                                                                          

>  <MASTER>
        0    0    0    0    0    0    0    0   77    0   77    0          

>  <Name>
Remdesivir.pdb

>  <RI>
-1.04741e+09

>  <Rbt.Current_Directory>
/root/miniconda3/envs/rdock/share/rxdock-2013.1.1_148c5bd1-0/data/ligands/prepped_ligands/Remdesivir

>  <Rbt.Executable>
rbdock/0.1.0

>  <Rbt.Library>
librxdock.so/0.1.0

>  <Rbt.Parameter_File>
/root/miniconda3/envs/rdock/share/rxdock-2013.1.1_148c5bd1-0/data/scripts/dock.prm

>  <Rbt.Receptor>
def.prm

>  <SCORE>
-9.70998

>  <SCORE.INTER>
2.23041

>  <SCORE.INTER.CONST>
1

>  <SCORE.INTER.POLAR>
-0.00560566

>  <SCORE.INTER.REPUL>
0

>  <SCORE.INTER.ROT>
14

>  <SCORE.INTER.VDW>
-17.1505

>  <SCORE.INTER.norm>
0.053105

>  <SCORE.INTRA>
-15.2725

>  <SCORE.INTRA.DIHEDRAL>
-14.4159

>  <SCORE.INTRA.DIHEDRAL.0>
33.3194

>  <SCORE.INTRA.POLAR>
-0.992338

>  <SCORE.INTRA.POLAR.0>
0

>  <SCORE.INTRA.REPUL>
-0.188091

>  <SCORE.INTRA.REPUL.0>
0.188091

>  <SCORE.INTRA.VDW>
-3.75015

>  <SCORE.INTRA.VDW.0>
-0.0599272

>  <SCORE.INTRA.norm>
-0.363632

>  <SCORE.RESTR>
1.27122

>  <SCORE.RESTR.CAVITY>
1.27122

>  <SCORE.RESTR.norm>
0.030267

>  <SCORE.SYSTEM>
2.06092

>  <SCORE.SYSTEM.CONST>
0

>  <SCORE.SYSTEM.DIHEDRAL>
4.85958

>  <SCORE.SYSTEM.VDW>
-0.368868

>  <SCORE.SYSTEM.norm>
0.0490696

>  <SCORE.heavy>
42

>  <SCORE.norm>
-0.23119

>  <TITLE>
    121304016_D                                                           

$$$$
Remdesivir.pdb
  RxDock  02242113103D
librxdock.so/0.1.0
 47 50  0  0  0  0  0  0  0  0999 V2000
  -52.6529   -3.7817   18.5163 P   0  0  0  0  0  0
  -48.3768   -1.0522   18.6045 O   0  0  0  0  0  0
  -47.8295    0.1159   15.2421 O   0  0  0  0  0  0
  -50.3173    0.1428   16.0882 O   0  0  0  0  0  0
  -51.7190   -2.5778   17.9959 O   0  0  0  0  0  0
  -51.5944   -4.8241   19.1469 O   0  0  0  0  0  0
  -53.6004   -3.2901   19.5792 O   0  0  0  0  0  0
  -50.8159   -6.6919   16.9882 O   0  0  0  0  0  0
  -51.0045   -4.7062   15.9498 O   0  0  0  0  0  0
  -45.0774   -0.0023   18.2276 N   0  0  0  0  0  0
  -45.0476    1.3338   18.5131 N   0  0  0  0  0  0
  -53.4426   -4.3721   17.3783 N   0  0  0  0  0  0
  -47.6402    2.1637   18.0113 N   0  0  0  0  0  0
  -42.6980    1.1974   18.9548 N   0  0  0  0  0  0
  -41.5638   -0.8130   18.7604 N   0  0  0  0  0  0
  -47.5036   -0.4173   17.6524 C   0  0  0  0  0  0
  -48.0880   -0.8344   16.2873 C   0  0  0  0  0  0
  -49.5938   -1.0118   16.5401 C   0  0  0  0  0  0
  -49.7109   -1.1436   18.0703 C   0  0  0  0  0  0
  -46.0590   -0.8601   17.8514 C   0  0  0  0  0  0
  -50.3703   -2.4708   18.4820 C   0  0  0  0  0  0
  -47.5811    1.0398   17.8561 C   0  0  0  0  0  0
  -45.5728   -2.1080   17.6889 C   0  0  0  0  0  0
  -43.9503   -0.7583   18.2953 C   0  0  0  0  0  0
  -44.2056   -2.0528   17.9747 C   0  0  0  0  0  0
  -42.7430   -0.1123   18.6724 C   0  0  0  0  0  0
  -52.9619   -5.7034   16.9899 C   0  0  0  0  0  0
  -43.8950    1.8591   18.8543 C   0  0  0  0  0  0
  -48.6318   -7.5796   17.7639 C   0  0  0  0  0  0
  -49.3911   -6.6657   16.7756 C   0  0  0  0  0  0
  -48.5152   -6.8706   19.1328 C   0  0  0  0  0  0
  -49.3809   -8.9233   17.9299 C   0  0  0  0  0  0
  -51.5128   -5.6213   16.5708 C   0  0  0  0  0  0
  -53.8007   -6.2016   15.8022 C   0  0  0  0  0  0
  -51.9898   -5.8782   19.9231 C   0  0  0  0  0  0
  -47.3946   -7.4716   20.0002 C   0  0  0  0  0  0
  -48.4747  -10.0025   18.5522 C   0  0  0  0  0  0
  -51.5236   -7.1600   19.6926 C   0  0  0  0  0  0
  -52.8694   -5.6565   20.9645 C   0  0  0  0  0  0
  -51.9347   -8.2019   20.4903 C   0  0  0  0  0  0
  -53.2811   -6.6996   21.7608 C   0  0  0  0  0  0
  -52.8148   -7.9720   21.5240 C   0  0  0  0  0  0
  -46.8430    0.2046   15.0632 H   0  0  0  0  0  0
  -50.4905    0.1019   15.0987 H   0  0  0  0  0  0
  -53.4067   -3.7413   16.5693 H   0  0  0  0  0  0
  -40.8251   -0.3964   18.9944 H   0  0  0  0  0  0
  -41.5424   -1.6756   18.5842 H   0  0  0  0  0  0
  1  5  1  0  0  0
  1  6  1  0  0  0
  1  7  2  0  0  0
  1 12  1  0  0  0
  2 16  1  0  0  0
  2 19  1  0  0  0
  3 17  1  0  0  0
  3 43  1  0  0  0
  4 18  1  0  0  0
  4 44  1  0  0  0
  5 21  1  0  0  0
  6 35  1  0  0  0
  8 30  1  0  0  0
  8 33  1  0  0  0
  9 33  2  0  0  0
 10 11  1  0  0  0
 10 20  1  0  0  0
 10 24  1  0  0  0
 11 28  2  0  0  0
 12 27  1  0  0  0
 12 45  1  0  0  0
 13 22  3  0  0  0
 14 26  2  0  0  0
 14 28  1  0  0  0
 15 26  1  0  0  0
 15 46  1  0  0  0
 15 47  1  0  0  0
 16 17  1  0  0  0
 16 20  1  0  0  0
 16 22  1  0  0  0
 17 18  1  0  0  0
 18 19  1  0  0  0
 19 21  1  0  0  0
 20 23  2  0  0  0
 23 25  1  0  0  0
 24 25  2  0  0  0
 24 26  1  0  0  0
 27 33  1  0  0  0
 27 34  1  0  0  0
 29 30  1  0  0  0
 29 31  1  0  0  0
 29 32  1  0  0  0
 31 36  1  0  0  0
 32 37  1  0  0  0
 35 38  2  0  0  0
 35 39  1  0  0  0
 38 40  1  0  0  0
 39 41  2  0  0  0
 40 42  2  0  0  0
 41 42  1  0  0  0
M  END
>  <CHROM.0>
-75.37217977,67.86114968,70.88550928

>  <CHROM.1>
-16.91719174,167.61405689,108.01543344,63.42360566,82.39906902,-170.30840821
131.33060923,155.81297971,5.46850651,-59.23167373,-115.65017478,178.35875570
141.59843476,-78.48093954,-160.52576156,163.01379766,-49.13657940,-3.41738395
18.20467322,2.36937112,0.12063341,2.90574272

>  <HEADER>
                                                                          

>  <MASTER>
        0    0    0    0    0    0    0    0   77    0   77    0          

>  <Name>
Remdesivir.pdb

>  <RI>
-1.04741e+09

>  <Rbt.Current_Directory>
/root/miniconda3/envs/rdock/share/rxdock-2013.1.1_148c5bd1-0/data/ligands/prepped_ligands/Remdesivir

>  <Rbt.Executable>
rbdock/0.1.0

>  <Rbt.Library>
librxdock.so/0.1.0

>  <Rbt.Parameter_File>
/root/miniconda3/envs/rdock/share/rxdock-2013.1.1_148c5bd1-0/data/scripts/dock.prm

>  <Rbt.Receptor>
def.prm

>  <SCORE>
-22.9237

>  <SCORE.INTER>
-13.2757

>  <SCORE.INTER.CONST>
1

>  <SCORE.INTER.POLAR>
-1.69308

>  <SCORE.INTER.REPUL>
0.0154635

>  <SCORE.INTER.ROT>
14

>  <SCORE.INTER.VDW>
-26.9965

>  <SCORE.INTER.norm>
-0.316088

>  <SCORE.INTRA>
-9.41899

>  <SCORE.INTRA.DIHEDRAL>
-13.8607

>  <SCORE.INTRA.DIHEDRAL.0>
33.3194

>  <SCORE.INTRA.POLAR>
0

>  <SCORE.INTRA.POLAR.0>
0

>  <SCORE.INTRA.REPUL>
-0.188091

>  <SCORE.INTRA.REPUL.0>
0.188091

>  <SCORE.INTRA.VDW>
-1.54821

>  <SCORE.INTRA.VDW.0>
-0.0599272

>  <SCORE.INTRA.norm>
-0.224262

>  <SCORE.RESTR>
0.16076

>  <SCORE.RESTR.CAVITY>
0.16076

>  <SCORE.RESTR.norm>
0.00382761

>  <SCORE.SYSTEM>
-0.389803

>  <SCORE.SYSTEM.CONST>
0

>  <SCORE.SYSTEM.DIHEDRAL>
1.1394

>  <SCORE.SYSTEM.POLAR>
-0.017328

>  <SCORE.SYSTEM.VDW>
-0.900587

>  <SCORE.SYSTEM.norm>
-0.00928103

>  <SCORE.heavy>
42

>  <SCORE.norm>
-0.545803

>  <TITLE>
    121304016_D                                                           

$$$$
Remdesivir.pdb
  RxDock  02242113103D
librxdock.so/0.1.0
 47 50  0  0  0  0  0  0  0  0999 V2000
  -50.9318   -4.8337   14.9536 P   0  0  0  0  0  0
  -47.8087   -2.6006   18.2012 O   0  0  0  0  0  0
  -49.8870    0.2549   18.9058 O   0  0  0  0  0  0
  -51.0929   -2.0799   18.8858 O   0  0  0  0  0  0
  -50.3476   -4.6777   16.4457 O   0  0  0  0  0  0
  -51.4010   -3.3348   14.5822 O   0  0  0  0  0  0
  -49.8500   -5.2924   14.0109 O   0  0  0  0  0  0
  -52.8375   -7.6826   17.2990 O   0  0  0  0  0  0
  -54.6287   -7.4448   15.9604 O   0  0  0  0  0  0
  -45.5112   -0.6153   19.0806 N   0  0  0  0  0  0
  -45.0866   -1.4653   20.0629 N   0  0  0  0  0  0
  -52.0678   -5.8216   14.9279 N   0  0  0  0  0  0
  -48.1662   -1.4799   21.3402 N   0  0  0  0  0  0
  -42.9064   -0.4774   19.9892 N   0  0  0  0  0  0
  -42.4315    1.2535   18.5249 N   0  0  0  0  0  0
  -47.9288   -1.2752   18.7497 C   0  0  0  0  0  0
  -49.2167   -0.7277   18.1011 C   0  0  0  0  0  0
  -50.0947   -1.9662   17.8604 C   0  0  0  0  0  0
  -49.1140   -3.1511   17.9434 C   0  0  0  0  0  0
  -46.6937   -0.4381   18.4393 C   0  0  0  0  0  0
  -49.1068   -3.9804   16.6480 C   0  0  0  0  0  0
  -48.0624   -1.3918   20.2123 C   0  0  0  0  0  0
  -46.6038    0.5516   17.5269 C   0  0  0  0  0  0
  -44.6702    0.3034   18.5376 C   0  0  0  0  0  0
  -45.2950    1.0392   17.5826 C   0  0  0  0  0  0
  -43.3373    0.3492   19.0258 C   0  0  0  0  0  0
  -52.9740   -5.6679   16.0722 C   0  0  0  0  0  0
  -43.8410   -1.3628   20.4617 C   0  0  0  0  0  0
  -50.8071   -7.9459   18.7019 C   0  0  0  0  0  0
  -51.5578   -7.1138   17.6376 C   0  0  0  0  0  0
  -49.3553   -7.4293   18.8273 C   0  0  0  0  0  0
  -51.5246   -7.8349   20.0683 C   0  0  0  0  0  0
  -53.5912   -7.0027   16.4182 C   0  0  0  0  0  0
  -54.0899   -4.6837   15.6867 C   0  0  0  0  0  0
  -50.5025   -2.3290   14.3565 C   0  0  0  0  0  0
  -48.5192   -7.7484   17.5749 C   0  0  0  0  0  0
  -50.9994   -8.8815   21.0692 C   0  0  0  0  0  0
  -50.6534   -1.0820   14.9358 C   0  0  0  0  0  0
  -49.4166   -2.5660   13.5367 C   0  0  0  0  0  0
  -49.7333   -0.0889   14.6948 C   0  0  0  0  0  0
  -48.4978   -1.5715   13.2951 C   0  0  0  0  0  0
  -48.6558   -0.3331   13.8731 C   0  0  0  0  0  0
  -49.2882    1.0402   19.0996 H   0  0  0  0  0  0
  -51.6533   -2.9051   18.7611 H   0  0  0  0  0  0
  -51.6939   -6.7774   14.9081 H   0  0  0  0  0  0
  -41.6102    1.2686   18.8399 H   0  0  0  0  0  0
  -42.6672    1.8178   17.8912 H   0  0  0  0  0  0
  1  5  1  0  0  0
  1  6  1  0  0  0
  1  7  2  0  0  0
  1 12  1  0  0  0
  2 16  1  0  0  0
  2 19  1  0  0  0
  3 17  1  0  0  0
  3 43  1  0  0  0
  4 18  1  0  0  0
  4 44  1  0  0  0
  5 21  1  0  0  0
  6 35  1  0  0  0
  8 30  1  0  0  0
  8 33  1  0  0  0
  9 33  2  0  0  0
 10 11  1  0  0  0
 10 20  1  0  0  0
 10 24  1  0  0  0
 11 28  2  0  0  0
 12 27  1  0  0  0
 12 45  1  0  0  0
 13 22  3  0  0  0
 14 26  2  0  0  0
 14 28  1  0  0  0
 15 26  1  0  0  0
 15 46  1  0  0  0
 15 47  1  0  0  0
 16 17  1  0  0  0
 16 20  1  0  0  0
 16 22  1  0  0  0
 17 18  1  0  0  0
 18 19  1  0  0  0
 19 21  1  0  0  0
 20 23  2  0  0  0
 23 25  1  0  0  0
 24 25  2  0  0  0
 24 26  1  0  0  0
 27 33  1  0  0  0
 27 34  1  0  0  0
 29 30  1  0  0  0
 29 31  1  0  0  0
 29 32  1  0  0  0
 31 36  1  0  0  0
 32 37  1  0  0  0
 35 38  2  0  0  0
 35 39  1  0  0  0
 38 40  1  0  0  0
 39 41  2  0  0  0
 40 42  2  0  0  0
 41 42  1  0  0  0
M  END
>  <CHROM.0>
177.36847322,-58.43157252,-63.38836120

>  <CHROM.1>
-70.76503292,70.31895753,41.77970379,58.59644578,-177.85511503,143.20940858
-133.28518236,177.49582056,172.80144192,-150.21374431,-74.73696862,172.89912949
89.16572575,169.86249557,-69.28485850,167.44661556,-49.17717225,-3.24783684
17.33363539,2.83129890,0.72522133,2.33857892

>  <HEADER>
                                                                          

>  <MASTER>
        0    0    0    0    0    0    0    0   77    0   77    0          

>  <Name>
Remdesivir.pdb

>  <RI>
-1.04741e+09

>  <Rbt.Current_Directory>
/root/miniconda3/envs/rdock/share/rxdock-2013.1.1_148c5bd1-0/data/ligands/prepped_ligands/Remdesivir

>  <Rbt.Executable>
rbdock/0.1.0

>  <Rbt.Library>
librxdock.so/0.1.0

>  <Rbt.Parameter_File>
/root/miniconda3/envs/rdock/share/rxdock-2013.1.1_148c5bd1-0/data/scripts/dock.prm

>  <Rbt.Receptor>
def.prm

>  <SCORE>
-25.7728

>  <SCORE.INTER>
-14.7575

>  <SCORE.INTER.CONST>
1

>  <SCORE.INTER.POLAR>
-1.25917

>  <SCORE.INTER.REPUL>
0.220009

>  <SCORE.INTER.ROT>
14

>  <SCORE.INTER.VDW>
-30.9763

>  <SCORE.INTER.norm>
-0.351369

>  <SCORE.INTRA>
-10.0126

>  <SCORE.INTRA.DIHEDRAL>
-19.6364

>  <SCORE.INTRA.DIHEDRAL.0>
33.3194

>  <SCORE.INTRA.POLAR>
0

>  <SCORE.INTRA.POLAR.0>
0

>  <SCORE.INTRA.REPUL>
-0.188091

>  <SCORE.INTRA.REPUL.0>
0.188091

>  <SCORE.INTRA.VDW>
0.745991

>  <SCORE.INTRA.VDW.0>
-0.0599272

>  <SCORE.INTRA.norm>
-0.238396

>  <SCORE.RESTR>
0.00851693

>  <SCORE.RESTR.CAVITY>
0.00851693

>  <SCORE.RESTR.norm>
0.000202784

>  <SCORE.SYSTEM>
-1.01114

>  <SCORE.SYSTEM.CONST>
0

>  <SCORE.SYSTEM.DIHEDRAL>
0.0623326

>  <SCORE.SYSTEM.VDW>
-1.04231

>  <SCORE.SYSTEM.norm>
-0.0240748

>  <SCORE.heavy>
42

>  <SCORE.norm>
-0.613637

>  <TITLE>
    121304016_D                                                           

$$$$
Remdesivir.pdb
  RxDock  02242113103D
librxdock.so/0.1.0
 47 50  0  0  0  0  0  0  0  0999 V2000
  -48.9706    0.1785   17.5720 P   0  0  0  0  0  0
  -51.8503   -3.7714   18.0655 O   0  0  0  0  0  0
  -50.3353   -5.9014   20.5429 O   0  0  0  0  0  0
  -49.8182   -3.3332   20.7494 O   0  0  0  0  0  0
  -48.9836   -1.4058   17.8588 O   0  0  0  0  0  0
  -48.2728    0.2853   16.1207 O   0  0  0  0  0  0
  -50.3775    0.7143   17.5173 O   0  0  0  0  0  0
  -45.9193   -0.5706   18.3117 O   0  0  0  0  0  0
  -45.5672    0.5640   16.4024 O   0  0  0  0  0  0
  -53.4577   -5.9731   17.1194 N   0  0  0  0  0  0
  -54.1678   -4.8934   16.6749 N   0  0  0  0  0  0
  -48.2008    0.9063   18.6420 N   0  0  0  0  0  0
  -53.4876   -4.5440   20.8867 N   0  0  0  0  0  0
  -55.3870   -6.3019   15.1702 N   0  0  0  0  0  0
  -54.9660   -8.5772   15.0628 N   0  0  0  0  0  0
  -51.9114   -4.9753   18.8523 C   0  0  0  0  0  0
  -50.4513   -5.1931   19.2990 C   0  0  0  0  0  0
  -49.8502   -3.7811   19.3860 C   0  0  0  0  0  0
  -50.8140   -2.9048   18.5640 C   0  0  0  0  0  0
  -52.4735   -6.1352   18.0391 C   0  0  0  0  0  0
  -50.0951   -2.1957   17.4037 C   0  0  0  0  0  0
  -52.8018   -4.7309   20.0004 C   0  0  0  0  0  0
  -52.0918   -7.4269   18.1144 C   0  0  0  0  0  0
  -53.6837   -7.2151   16.6168 C   0  0  0  0  0  0
  -52.8708   -8.1359   17.1955 C   0  0  0  0  0  0
  -54.6819   -7.3514   15.6157 C   0  0  0  0  0  0
  -46.9776    1.5338   18.1280 C   0  0  0  0  0  0
  -55.0731   -5.0984   15.7479 C   0  0  0  0  0  0
  -43.6726   -1.2604   17.5138 C   0  0  0  0  0  0
  -45.1359   -1.6666   17.8008 C   0  0  0  0  0  0
  -42.8275   -1.4460   18.7951 C   0  0  0  0  0  0
  -43.0931   -2.1283   16.3714 C   0  0  0  0  0  0
  -46.0911    0.4851   17.4982 C   0  0  0  0  0  0
  -46.2289    2.1850   19.3018 C   0  0  0  0  0  0
  -48.3395   -0.7307   15.2078 C   0  0  0  0  0  0
  -43.1239   -0.3593   19.8442 C   0  0  0  0  0  0
  -43.7739   -1.8181   15.0248 C   0  0  0  0  0  0
  -49.4096   -0.8528   14.3397 C   0  0  0  0  0  0
  -47.3122   -1.6518   15.1473 C   0  0  0  0  0  0
  -49.4504   -1.8823   13.4290 C   0  0  0  0  0  0
  -47.3548   -2.6819   14.2371 C   0  0  0  0  0  0
  -48.4234   -2.7980   13.3784 C   0  0  0  0  0  0
  -49.3740   -5.9848   20.8289 H   0  0  0  0  0  0
  -49.2538   -3.9384   21.3203 H   0  0  0  0  0  0
  -47.9642    0.2558   19.4001 H   0  0  0  0  0  0
  -55.5884   -8.6433   14.4445 H   0  0  0  0  0  0
  -54.5299   -9.2967   15.3230 H   0  0  0  0  0  0
  1  5  1  0  0  0
  1  6  1  0  0  0
  1  7  2  0  0  0
  1 12  1  0  0  0
  2 16  1  0  0  0
  2 19  1  0  0  0
  3 17  1  0  0  0
  3 43  1  0  0  0
  4 18  1  0  0  0
  4 44  1  0  0  0
  5 21  1  0  0  0
  6 35  1  0  0  0
  8 30  1  0  0  0
  8 33  1  0  0  0
  9 33  2  0  0  0
 10 11  1  0  0  0
 10 20  1  0  0  0
 10 24  1  0  0  0
 11 28  2  0  0  0
 12 27  1  0  0  0
 12 45  1  0  0  0
 13 22  3  0  0  0
 14 26  2  0  0  0
 14 28  1  0  0  0
 15 26  1  0  0  0
 15 46  1  0  0  0
 15 47  1  0  0  0
 16 17  1  0  0  0
 16 20  1  0  0  0
 16 22  1  0  0  0
 17 18  1  0  0  0
 18 19  1  0  0  0
 19 21  1  0  0  0
 20 23  2  0  0  0
 23 25  1  0  0  0
 24 25  2  0  0  0
 24 26  1  0  0  0
 27 33  1  0  0  0
 27 34  1  0  0  0
 29 30  1  0  0  0
 29 31  1  0  0  0
 29 32  1  0  0  0
 31 36  1  0  0  0
 32 37  1  0  0  0
 35 38  2  0  0  0
 35 39  1  0  0  0
 38 40  1  0  0  0
 39 41  2  0  0  0
 40 42  2  0  0  0
 41 42  1  0  0  0
M  END
>  <CHROM.0>
-176.65780067,-175.51132137,-48.07721619

>  <CHROM.1>
-88.22740355,27.25549092,114.20685302,-177.05739206,60.60220849,-120.29347199
85.81770900,63.32848799,-3.46859484,-57.90724754,-36.27510968,-175.28860007
-49.71351478,87.91679086,-73.54123101,67.83282931,-49.38403450,-2.77050418
17.38005358,-0.02636782,0.64421468,1.65361394

>  <HEADER>
                                                                          

>  <MASTER>
        0    0    0    0    0    0    0    0   77    0   77    0          

>  <Name>
Remdesivir.pdb

>  <RI>
-1.04741e+09

>  <Rbt.Current_Directory>
/root/miniconda3/envs/rdock/share/rxdock-2013.1.1_148c5bd1-0/data/ligands/prepped_ligands/Remdesivir

>  <Rbt.Executable>
rbdock/0.1.0

>  <Rbt.Library>
librxdock.so/0.1.0

>  <Rbt.Parameter_File>
/root/miniconda3/envs/rdock/share/rxdock-2013.1.1_148c5bd1-0/data/scripts/dock.prm

>  <Rbt.Receptor>
def.prm

>  <SCORE>
-23.4446

>  <SCORE.INTER>
-13.6469

>  <SCORE.INTER.CONST>
1

>  <SCORE.INTER.POLAR>
-0.69282

>  <SCORE.INTER.REPUL>
0.0755319

>  <SCORE.INTER.ROT>
14

>  <SCORE.INTER.VDW>
-31.069

>  <SCORE.INTER.norm>
-0.324926

>  <SCORE.INTRA>
-9.00225

>  <SCORE.INTRA.DIHEDRAL>
-11.1235

>  <SCORE.INTRA.DIHEDRAL.0>
33.3194

>  <SCORE.INTRA.POLAR>
0

>  <SCORE.INTRA.POLAR.0>
0

>  <SCORE.INTRA.REPUL>
0.0119352

>  <SCORE.INTRA.REPUL.0>
0.188091

>  <SCORE.INTRA.VDW>
-3.50017

>  <SCORE.INTRA.VDW.0>
-0.0599272

>  <SCORE.INTRA.norm>
-0.214339

>  <SCORE.RESTR>
0.00575607

>  <SCORE.RESTR.CAVITY>
0.00575607

>  <SCORE.RESTR.norm>
0.000137049

>  <SCORE.SYSTEM>
-0.801203

>  <SCORE.SYSTEM.CONST>
0

>  <SCORE.SYSTEM.DIHEDRAL>
0.454582

>  <SCORE.SYSTEM.POLAR>
-0.0190217

>  <SCORE.SYSTEM.VDW>
-0.963821

>  <SCORE.SYSTEM.norm>
-0.0190763

>  <SCORE.heavy>
42

>  <SCORE.norm>
-0.558205

>  <TITLE>
    121304016_D                                                           

$$$$
Remdesivir.pdb
  RxDock  02242113103D
librxdock.so/0.1.0
 47 50  0  0  0  0  0  0  0  0999 V2000
  -50.1071   -0.2808   17.5189 P   0  0  0  0  0  0
  -50.5501   -4.1923   17.3841 O   0  0  0  0  0  0
  -53.1356   -5.9671   15.6134 O   0  0  0  0  0  0
  -53.1202   -3.3546   15.3302 O   0  0  0  0  0  0
  -51.5197   -0.8378   18.0543 O   0  0  0  0  0  0
  -49.7514   -1.2827   16.3047 O   0  0  0  0  0  0
  -50.2572    1.1284   17.0081 O   0  0  0  0  0  0
  -46.4105   -0.8068   18.5949 O   0  0  0  0  0  0
  -46.1501    0.8677   17.1168 O   0  0  0  0  0  0
  -51.0029   -7.0588   18.6229 N   0  0  0  0  0  0
  -52.0071   -6.5993   19.4280 N   0  0  0  0  0  0
  -49.0753   -0.3069   18.6152 N   0  0  0  0  0  0
  -49.9978   -5.3901   14.3024 N   0  0  0  0  0  0
  -51.6217   -8.4030   20.9553 N   0  0  0  0  0  0
  -49.9685   -9.9743   20.5506 N   0  0  0  0  0  0
  -50.9796   -5.3951   16.7200 C   0  0  0  0  0  0
  -52.5175   -5.2769   16.7106 C   0  0  0  0  0  0
  -52.7970   -3.7660   16.6670 C   0  0  0  0  0  0
  -51.4720   -3.1198   17.1134 C   0  0  0  0  0  0
  -50.4738   -6.6349   17.4476 C   0  0  0  0  0  0
  -51.6568   -2.2360   18.3587 C   0  0  0  0  0  0
  -50.4245   -5.3915   15.3553 C   0  0  0  0  0  0
  -49.4752   -7.4487   17.0470 C   0  0  0  0  0  0
  -50.2976   -8.1732   18.9499 C   0  0  0  0  0  0
  -49.3530   -8.4501   18.0146 C   0  0  0  0  0  0
  -50.6398   -8.8420   20.1552 C   0  0  0  0  0  0
  -48.1298    0.8122   18.5258 C   0  0  0  0  0  0
  -52.2651   -7.2709   20.5249 C   0  0  0  0  0  0
  -43.9717   -0.7532   19.0528 C   0  0  0  0  0  0
  -45.1279   -1.3394   18.2113 C   0  0  0  0  0  0
  -44.0481    0.7907   19.0251 C   0  0  0  0  0  0
  -44.0660   -1.2582   20.5124 C   0  0  0  0  0  0
  -46.8076    0.3221   17.9836 C   0  0  0  0  0  0
  -47.9130    1.3861   19.9350 C   0  0  0  0  0  0
  -48.4690   -1.4626   15.8653 C   0  0  0  0  0  0
  -42.7085    1.4416   19.4140 C   0  0  0  0  0  0
  -45.3825   -0.8167   21.1793 C   0  0  0  0  0  0
  -47.7661   -2.6213   16.1425 C   0  0  0  0  0  0
  -47.8645   -0.4673   15.1227 C   0  0  0  0  0  0
  -46.4786   -2.7780   15.6859 C   0  0  0  0  0  0
  -46.5762   -0.6245   14.6678 C   0  0  0  0  0  0
  -45.8827   -1.7788   14.9494 C   0  0  0  0  0  0
  -52.8638   -6.9359   15.5901 H   0  0  0  0  0  0
  -52.3656   -3.5489   14.6950 H   0  0  0  0  0  0
  -48.5632   -1.1961   18.5863 H   0  0  0  0  0  0
  -50.1931  -10.3751   21.3009 H   0  0  0  0  0  0
  -49.3153  -10.3013   20.0587 H   0  0  0  0  0  0
  1  5  1  0  0  0
  1  6  1  0  0  0
  1  7  2  0  0  0
  1 12  1  0  0  0
  2 16  1  0  0  0
  2 19  1  0  0  0
  3 17  1  0  0  0
  3 43  1  0  0  0
  4 18  1  0  0  0
  4 44  1  0  0  0
  5 21  1  0  0  0
  6 35  1  0  0  0
  8 30  1  0  0  0
  8 33  1  0  0  0
  9 33  2  0  0  0
 10 11  1  0  0  0
 10 20  1  0  0  0
 10 24  1  0  0  0
 11 28  2  0  0  0
 12 27  1  0  0  0
 12 45  1  0  0  0
 13 22  3  0  0  0
 14 26  2  0  0  0
 14 28  1  0  0  0
 15 26  1  0  0  0
 15 46  1  0  0  0
 15 47  1  0  0  0
 16 17  1  0  0  0
 16 20  1  0  0  0
 16 22  1  0  0  0
 17 18  1  0  0  0
 18 19  1  0  0  0
 19 21  1  0  0  0
 20 23  2  0  0  0
 23 25  1  0  0  0
 24 25  2  0  0  0
 24 26  1  0  0  0
 27 33  1  0  0  0
 27 34  1  0  0  0
 29 30  1  0  0  0
 29 31  1  0  0  0
 29 32  1  0  0  0
 31 36  1  0  0  0
 32 37  1  0  0  0
 35 38  2  0  0  0
 35 39  1  0  0  0
 38 40  1  0  0  0
 39 41  2  0  0  0
 40 42  2  0  0  0
 41 42  1  0  0  0
M  END
>  <CHROM.0>
-61.42426283,-64.23554498,173.28968949

>  <CHROM.1>
50.83724358,-157.54313378,-145.69387609,55.24089364,-60.05704536,-63.49752858
106.41493673,88.46290245,2.01022668,-104.27298179,74.02967082,131.15278157
-46.49825107,-52.18833350,-160.53892634,-61.16472040,-49.04759959,-3.02299763
17.74213665,0.80718131,-0.52949451,-0.44798452

>  <HEADER>
                                                                          

>  <MASTER>
        0    0    0    0    0    0    0    0   77    0   77    0          

>  <Name>
Remdesivir.pdb

>  <RI>
-1.04741e+09

>  <Rbt.Current_Directory>
/root/miniconda3/envs/rdock/share/rxdock-2013.1.1_148c5bd1-0/data/ligands/prepped_ligands/Remdesivir

>  <Rbt.Executable>
rbdock/0.1.0

>  <Rbt.Library>
librxdock.so/0.1.0

>  <Rbt.Parameter_File>
/root/miniconda3/envs/rdock/share/rxdock-2013.1.1_148c5bd1-0/data/scripts/dock.prm

>  <Rbt.Receptor>
def.prm

>  <SCORE>
-23.0659

>  <SCORE.INTER>
-12.3658

>  <SCORE.INTER.CONST>
1

>  <SCORE.INTER.POLAR>
-1.54135

>  <SCORE.INTER.REPUL>
0

>  <SCORE.INTER.ROT>
14

>  <SCORE.INTER.VDW>
-26.5252

>  <SCORE.INTER.norm>
-0.294423

>  <SCORE.INTRA>
-9.66856

>  <SCORE.INTRA.DIHEDRAL>
-12.6919

>  <SCORE.INTRA.DIHEDRAL.0>
33.3194

>  <SCORE.INTRA.POLAR>
-0.17263

>  <SCORE.INTRA.POLAR.0>
0

>  <SCORE.INTRA.REPUL>
-0.188091

>  <SCORE.INTRA.REPUL.0>
0.188091

>  <SCORE.INTRA.VDW>
-1.79523

>  <SCORE.INTRA.VDW.0>
-0.0599272

>  <SCORE.INTRA.norm>
-0.230204

>  <SCORE.RESTR>
0

>  <SCORE.RESTR.CAVITY>
0

>  <SCORE.RESTR.norm>
0

>  <SCORE.SYSTEM>
-1.03158

>  <SCORE.SYSTEM.CONST>
0

>  <SCORE.SYSTEM.DIHEDRAL>
0.209741

>  <SCORE.SYSTEM.VDW>
-1.13645

>  <SCORE.SYSTEM.norm>
-0.0245614

>  <SCORE.heavy>
42

>  <SCORE.norm>
-0.549188

>  <TITLE>
    121304016_D                                                           

$$$$
Remdesivir.pdb
  RxDock  02242113113D
librxdock.so/0.1.0
 47 50  0  0  0  0  0  0  0  0999 V2000
  -51.1575   -5.4964   20.4081 P   0  0  0  0  0  0
  -49.6022   -1.4405   19.3759 O   0  0  0  0  0  0
  -52.4930   -1.2878   17.2335 O   0  0  0  0  0  0
  -52.9688   -1.4490   19.8129 O   0  0  0  0  0  0
  -51.1618   -4.1274   21.2556 O   0  0  0  0  0  0
  -49.6299   -6.0022   20.5315 O   0  0  0  0  0  0
  -52.0934   -6.5011   21.0278 O   0  0  0  0  0  0
  -50.5957   -4.6045   16.6506 O   0  0  0  0  0  0
  -49.4887   -6.5485   16.4223 O   0  0  0  0  0  0
  -48.2285   -2.0143   16.9407 N   0  0  0  0  0  0
  -47.8518   -3.0331   17.7699 N   0  0  0  0  0  0
  -51.5720   -5.2410   18.9833 N   0  0  0  0  0  0
  -50.8900    1.5131   18.4514 N   0  0  0  0  0  0
  -46.0874   -3.6218   16.2616 N   0  0  0  0  0  0
  -45.7506   -2.4353   14.3008 N   0  0  0  0  0  0
  -50.1966   -0.9840   18.1469 C   0  0  0  0  0  0
  -51.4257   -1.8997   17.9745 C   0  0  0  0  0  0
  -51.8550   -2.2581   19.4063 C   0  0  0  0  0  0
  -50.6209   -1.9304   20.2679 C   0  0  0  0  0  0
  -49.2079   -1.0766   16.9909 C   0  0  0  0  0  0
  -50.1188   -3.1618   21.0408 C   0  0  0  0  0  0
  -50.5874    0.4260   18.3197 C   0  0  0  0  0  0
  -49.1664   -0.2774   15.9048 C   0  0  0  0  0  0
  -47.5653   -1.7749   15.7792 C   0  0  0  0  0  0
  -48.1044   -0.7222   15.1122 C   0  0  0  0  0  0
  -46.4691   -2.6189   15.4581 C   0  0  0  0  0  0
  -51.2448   -6.3603   18.0921 C   0  0  0  0  0  0
  -46.8296   -3.7701   17.4052 C   0  0  0  0  0  0
  -50.7025   -3.7988   14.3055 C   0  0  0  0  0  0
  -49.8355   -4.0485   15.5603 C   0  0  0  0  0  0
  -52.0920   -3.2762   14.7373 C   0  0  0  0  0  0
  -50.0162   -2.7655   13.3807 C   0  0  0  0  0  0
  -50.3395   -5.8816   16.9815 C   0  0  0  0  0  0
  -52.5481   -6.8988   17.4807 C   0  0  0  0  0  0
  -49.1862   -7.1294   19.8971 C   0  0  0  0  0  0
  -53.0502   -4.4227   15.1074 C   0  0  0  0  0  0
  -48.7288   -3.3344   12.7547 C   0  0  0  0  0  0
  -49.8574   -8.3337   20.0102 C   0  0  0  0  0  0
  -48.0458   -7.0621   19.1210 C   0  0  0  0  0  0
  -49.3915   -9.4516   19.3590 C   0  0  0  0  0  0
  -47.5799   -8.1812   18.4714 C   0  0  0  0  0  0
  -48.2516   -9.3759   18.5904 C   0  0  0  0  0  0
  -53.0029   -1.9685   16.6956 H   0  0  0  0  0  0
  -53.3201   -1.7345   20.7106 H   0  0  0  0  0  0
  -51.1231   -4.3834   18.6415 H   0  0  0  0  0  0
  -45.0738   -2.9669   14.1184 H   0  0  0  0  0  0
  -45.9627   -1.7894   13.7409 H   0  0  0  0  0  0
  1  5  1  0  0  0
  1  6  1  0  0  0
  1  7  2  0  0  0
  1 12  1  0  0  0
  2 16  1  0  0  0
  2 19  1  0  0  0
  3 17  1  0  0  0
  3 43  1  0  0  0
  4 18  1  0  0  0
  4 44  1  0  0  0
  5 21  1  0  0  0
  6 35  1  0  0  0
  8 30  1  0  0  0
  8 33  1  0  0  0
  9 33  2  0  0  0
 10 11  1  0  0  0
 10 20  1  0  0  0
 10 24  1  0  0  0
 11 28  2  0  0  0
 12 27  1  0  0  0
 12 45  1  0  0  0
 13 22  3  0  0  0
 14 26  2  0  0  0
 14 28  1  0  0  0
 15 26  1  0  0  0
 15 46  1  0  0  0
 15 47  1  0  0  0
 16 17  1  0  0  0
 16 20  1  0  0  0
 16 22  1  0  0  0
 17 18  1  0  0  0
 18 19  1  0  0  0
 19 21  1  0  0  0
 20 23  2  0  0  0
 23 25  1  0  0  0
 24 25  2  0  0  0
 24 26  1  0  0  0
 27 33  1  0  0  0
 27 34  1  0  0  0
 29 30  1  0  0  0
 29 31  1  0  0  0
 29 32  1  0  0  0
 31 36  1  0  0  0
 32 37  1  0  0  0
 35 38  2  0  0  0
 35 39  1  0  0  0
 38 40  1  0  0  0
 39 41  2  0  0  0
 40 42  2  0  0  0
 41 42  1  0  0  0
M  END
>  <CHROM.0>
-69.68326820,62.23279197,174.03986471

>  <CHROM.1>
47.13688193,-177.44768037,164.64948951,147.45349887,174.26740088,106.74250059
-50.81187392,110.44986057,1.66940522,-121.54609182,30.15732204,-144.03742483
-31.98614582,38.61558868,-84.04416968,68.16034520,-49.92451056,-3.92125905
17.73793816,1.81490569,-0.90126637,2.74484181

>  <HEADER>
                                                                          

>  <MASTER>
        0    0    0    0    0    0    0    0   77    0   77    0          

>  <Name>
Remdesivir.pdb

>  <RI>
-1.04741e+09

>  <Rbt.Current_Directory>
/root/miniconda3/envs/rdock/share/rxdock-2013.1.1_148c5bd1-0/data/ligands/prepped_ligands/Remdesivir

>  <Rbt.Executable>
rbdock/0.1.0

>  <Rbt.Library>
librxdock.so/0.1.0

>  <Rbt.Parameter_File>
/root/miniconda3/envs/rdock/share/rxdock-2013.1.1_148c5bd1-0/data/scripts/dock.prm

>  <Rbt.Receptor>
def.prm

>  <SCORE>
-14.3752

>  <SCORE.INTER>
-3.57972

>  <SCORE.INTER.CONST>
1

>  <SCORE.INTER.POLAR>
-0.715488

>  <SCORE.INTER.REPUL>
0

>  <SCORE.INTER.ROT>
14

>  <SCORE.INTER.VDW>
-20.5471

>  <SCORE.INTER.norm>
-0.0852313

>  <SCORE.INTRA>
-10.2204

>  <SCORE.INTRA.DIHEDRAL>
-0.189312

>  <SCORE.INTRA.DIHEDRAL.0>
33.3194

>  <SCORE.INTRA.POLAR>
-0.200228

>  <SCORE.INTRA.POLAR.0>
0

>  <SCORE.INTRA.REPUL>
-0.188091

>  <SCORE.INTRA.REPUL.0>
0.188091

>  <SCORE.INTRA.VDW>
-8.5045

>  <SCORE.INTRA.VDW.0>
-0.0599272

>  <SCORE.INTRA.norm>
-0.243343

>  <SCORE.RESTR>
0.271173

>  <SCORE.RESTR.CAVITY>
0.271173

>  <SCORE.RESTR.norm>
0.00645651

>  <SCORE.SYSTEM>
-0.846275

>  <SCORE.SYSTEM.CONST>
0

>  <SCORE.SYSTEM.DIHEDRAL>
0.34978

>  <SCORE.SYSTEM.VDW>
-1.02117

>  <SCORE.SYSTEM.norm>
-0.0201494

>  <SCORE.heavy>
42

>  <SCORE.norm>
-0.342267

>  <TITLE>
    121304016_D                                                           

$$$$
Remdesivir.pdb
  RxDock  02242113113D
librxdock.so/0.1.0
 47 50  0  0  0  0  0  0  0  0999 V2000
  -47.6153   -0.2350   17.4897 P   0  0  0  0  0  0
  -49.4413   -3.7767   15.8093 O   0  0  0  0  0  0
  -52.8176   -4.1054   17.0187 O   0  0  0  0  0  0
  -52.4346   -2.3319   15.1176 O   0  0  0  0  0  0
  -48.3464   -1.5143   16.8409 O   0  0  0  0  0  0
  -46.4491   -0.8936   18.3904 O   0  0  0  0  0  0
  -47.0181    0.6317   16.4120 O   0  0  0  0  0  0
  -45.9071    1.1039   20.1102 O   0  0  0  0  0  0
  -47.7953    0.7072   21.2653 O   0  0  0  0  0  0
  -50.5726   -6.6176   17.9163 N   0  0  0  0  0  0
  -51.8221   -7.1208   17.6860 N   0  0  0  0  0  0
  -48.5879    0.5780   18.3021 N   0  0  0  0  0  0
  -51.5254   -6.0332   14.4670 N   0  0  0  0  0  0
  -51.4225   -8.8673   19.2749 N   0  0  0  0  0  0
  -49.4062   -9.0104   20.4062 N   0  0  0  0  0  0
  -50.4645   -4.6121   16.3813 C   0  0  0  0  0  0
  -51.4730   -3.6033   16.9678 C   0  0  0  0  0  0
  -51.3590   -2.3624   16.0678 C   0  0  0  0  0  0
  -50.0142   -2.5423   15.3386 C   0  0  0  0  0  0
  -49.8817   -5.5587   17.4238 C   0  0  0  0  0  0
  -49.0586   -1.3659   15.6010 C   0  0  0  0  0  0
  -51.0626   -5.4144   15.2998 C   0  0  0  0  0  0
  -48.6550   -5.4825   17.9800 C   0  0  0  0  0  0
  -49.7333   -7.2072   18.8074 C   0  0  0  0  0  0
  -48.5486   -6.5476   18.8789 C   0  0  0  0  0  0
  -50.1994   -8.3624   19.4897 C   0  0  0  0  0  0
  -47.9351    1.6679   19.0371 C   0  0  0  0  0  0
  -52.1813   -8.1910   18.3543 C   0  0  0  0  0  0
  -43.6326    0.4443   20.8527 C   0  0  0  0  0  0
  -45.1325    0.5726   21.2026 C   0  0  0  0  0  0
  -43.0278    1.8541   20.6606 C   0  0  0  0  0  0
  -42.8834   -0.2997   21.9837 C   0  0  0  0  0  0
  -47.2425    1.1159   20.2609 C   0  0  0  0  0  0
  -49.0090    2.6747   19.4792 C   0  0  0  0  0  0
  -45.2726   -1.3298   17.8468 C   0  0  0  0  0  0
  -41.6416    1.8012   19.9934 C   0  0  0  0  0  0
  -43.3036   -1.7797   22.0619 C   0  0  0  0  0  0
  -44.2057   -1.7079   18.6421 C   0  0  0  0  0  0
  -45.1493   -1.4002   16.4731 C   0  0  0  0  0  0
  -43.0347   -2.1461   18.0698 C   0  0  0  0  0  0
  -43.9770   -1.8371   15.9018 C   0  0  0  0  0  0
  -42.9195   -2.2094   16.6992 C   0  0  0  0  0  0
  -53.4384   -3.4465   17.4585 H   0  0  0  0  0  0
  -52.4255   -3.1464   14.5283 H   0  0  0  0  0  0
  -49.0851   -0.0340   18.9594 H   0  0  0  0  0  0
  -49.7116   -9.7240   20.8204 H   0  0  0  0  0  0
  -48.5948   -8.7165   20.5819 H   0  0  0  0  0  0
  1  5  1  0  0  0
  1  6  1  0  0  0
  1  7  2  0  0  0
  1 12  1  0  0  0
  2 16  1  0  0  0
  2 19  1  0  0  0
  3 17  1  0  0  0
  3 43  1  0  0  0
  4 18  1  0  0  0
  4 44  1  0  0  0
  5 21  1  0  0  0
  6 35  1  0  0  0
  8 30  1  0  0  0
  8 33  1  0  0  0
  9 33  2  0  0  0
 10 11  1  0  0  0
 10 20  1  0  0  0
 10 24  1  0  0  0
 11 28  2  0  0  0
 12 27  1  0  0  0
 12 45  1  0  0  0
 13 22  3  0  0  0
 14 26  2  0  0  0
 14 28  1  0  0  0
 15 26  1  0  0  0
 15 46  1  0  0  0
 15 47  1  0  0  0
 16 17  1  0  0  0
 16 20  1  0  0  0
 16 22  1  0  0  0
 17 18  1  0  0  0
 18 19  1  0  0  0
 19 21  1  0  0  0
 20 23  2  0  0  0
 23 25  1  0  0  0
 24 25  2  0  0  0
 24 26  1  0  0  0
 27 33  1  0  0  0
 27 34  1  0  0  0
 29 30  1  0  0  0
 29 31  1  0  0  0
 29 32  1  0  0  0
 31 36  1  0  0  0
 32 37  1  0  0  0
 35 38  2  0  0  0
 35 39  1  0  0  0
 38 40  1  0  0  0
 39 41  2  0  0  0
 40 42  2  0  0  0
 41 42  1  0  0  0
M  END
>  <CHROM.0>
67.87611739,64.38750246,167.70206116

>  <CHROM.1>
-155.05504150,79.94183058,173.45468692,176.42812590,-59.94504157,-163.48030343
170.28920523,172.84111600,0.25270725,-77.62001188,-166.70594562,-36.15192404
106.91931560,66.59334571,-166.54209439,68.31164541,-47.91693849,-2.50225045
18.14756989,0.64033751,-0.56879371,-0.29653524

>  <HEADER>
                                                                          

>  <MASTER>
        0    0    0    0    0    0    0    0   77    0   77    0          

>  <Name>
Remdesivir.pdb

>  <RI>
-1.04741e+09

>  <Rbt.Current_Directory>
/root/miniconda3/envs/rdock/share/rxdock-2013.1.1_148c5bd1-0/data/ligands/prepped_ligands/Remdesivir

>  <Rbt.Executable>
rbdock/0.1.0

>  <Rbt.Library>
librxdock.so/0.1.0

>  <Rbt.Parameter_File>
/root/miniconda3/envs/rdock/share/rxdock-2013.1.1_148c5bd1-0/data/scripts/dock.prm

>  <Rbt.Receptor>
def.prm

>  <SCORE>
-21.0752

>  <SCORE.INTER>
-4.11882

>  <SCORE.INTER.CONST>
1

>  <SCORE.INTER.POLAR>
-0.502975

>  <SCORE.INTER.REPUL>
0

>  <SCORE.INTER.ROT>
14

>  <SCORE.INTER.VDW>
-21.8087

>  <SCORE.INTER.norm>
-0.098067

>  <SCORE.INTRA>
-16.3263

>  <SCORE.INTRA.DIHEDRAL>
-23.7072

>  <SCORE.INTRA.DIHEDRAL.0>
33.3194

>  <SCORE.INTRA.POLAR>
0

>  <SCORE.INTRA.POLAR.0>
0

>  <SCORE.INTRA.REPUL>
-0.135357

>  <SCORE.INTRA.REPUL.0>
0.188091

>  <SCORE.INTRA.VDW>
-3.79589

>  <SCORE.INTRA.VDW.0>
-0.0599272

>  <SCORE.INTRA.norm>
-0.38872

>  <SCORE.RESTR>
0.0864598

>  <SCORE.RESTR.CAVITY>
0.0864598

>  <SCORE.RESTR.norm>
0.00205857

>  <SCORE.SYSTEM>
-0.716575

>  <SCORE.SYSTEM.CONST>
0

>  <SCORE.SYSTEM.DIHEDRAL>
0.609798

>  <SCORE.SYSTEM.VDW>
-1.02147

>  <SCORE.SYSTEM.norm>
-0.0170613

>  <SCORE.heavy>
42

>  <SCORE.norm>
-0.50179

>  <TITLE>
    121304016_D                                                           

$$$$
Remdesivir.pdb
  RxDock  02242113113D
librxdock.so/0.1.0
 47 50  0  0  0  0  0  0  0  0999 V2000
  -47.4678   -3.5388   16.9635 P   0  0  0  0  0  0
  -50.2310   -5.5714   17.5030 O   0  0  0  0  0  0
  -51.8248   -8.5421   18.7696 O   0  0  0  0  0  0
  -49.6006   -7.8191   19.9679 O   0  0  0  0  0  0
  -47.0804   -4.9198   17.6949 O   0  0  0  0  0  0
  -48.3872   -4.0207   15.7277 O   0  0  0  0  0  0
  -48.2599   -2.6563   17.8925 O   0  0  0  0  0  0
  -45.6288   -1.2521   19.6600 O   0  0  0  0  0  0
  -46.5615   -0.3409   17.8279 O   0  0  0  0  0  0
  -53.2995   -7.1247   16.2187 N   0  0  0  0  0  0
  -53.5949   -8.3601   16.7226 N   0  0  0  0  0  0
  -46.2294   -2.8083   16.5164 N   0  0  0  0  0  0
  -52.5879   -5.3661   19.8778 N   0  0  0  0  0  0
  -55.2788   -8.6527   15.0453 N   0  0  0  0  0  0
  -55.6926   -7.0037   13.4720 N   0  0  0  0  0  0
  -51.4445   -6.3113   17.7310 C   0  0  0  0  0  0
  -50.9552   -7.7595   17.9367 C   0  0  0  0  0  0
  -49.5515   -7.6189   18.5473 C   0  0  0  0  0  0
  -49.1417   -6.1681   18.2315 C   0  0  0  0  0  0
  -52.4083   -6.1602   16.5602 C   0  0  0  0  0  0
  -47.8419   -6.1057   17.4114 C   0  0  0  0  0  0
  -52.0895   -5.7767   18.9430 C   0  0  0  0  0  0
  -52.5080   -5.0976   15.7351 C   0  0  0  0  0  0
  -53.9660   -6.6292   15.1433 C   0  0  0  0  0  0
  -53.5159   -5.3916   14.8123 C   0  0  0  0  0  0
  -54.9782   -7.4388   14.5626 C   0  0  0  0  0  0
  -45.3555   -2.4425   17.6374 C   0  0  0  0  0  0
  -54.5428   -9.0488   16.1326 C   0  0  0  0  0  0
  -45.5291    1.2108   19.9498 C   0  0  0  0  0  0
  -46.0956   -0.1387   20.4462 C   0  0  0  0  0  0
  -46.4447    2.3600   20.4307 C   0  0  0  0  0  0
  -44.0952    1.4187   20.4928 C   0  0  0  0  0  0
  -45.9140   -1.2313   18.3469 C   0  0  0  0  0  0
  -43.9626   -2.1021   17.0838 C   0  0  0  0  0  0
  -49.0480   -3.1314   14.9260 C   0  0  0  0  0  0
  -47.7463    2.4412   19.6129 C   0  0  0  0  0  0
  -43.0987    0.4366   19.8482 C   0  0  0  0  0  0
  -50.3987   -3.2647   14.6592 C   0  0  0  0  0  0
  -48.3520   -2.0732   14.3756 C   0  0  0  0  0  0
  -51.0398   -2.3545   13.8521 C   0  0  0  0  0  0
  -48.9938   -1.1643   13.5672 C   0  0  0  0  0  0
  -50.3370   -1.3046   13.3047 C   0  0  0  0  0  0
  -52.7253   -8.6718   18.3394 H   0  0  0  0  0  0
  -48.7018   -7.6636   20.3906 H   0  0  0  0  0  0
  -46.4953   -1.9649   15.9951 H   0  0  0  0  0  0
  -56.3153   -7.5189   13.1245 H   0  0  0  0  0  0
  -55.5315   -6.2133   13.1185 H   0  0  0  0  0  0
  1  5  1  0  0  0
  1  6  1  0  0  0
  1  7  2  0  0  0
  1 12  1  0  0  0
  2 16  1  0  0  0
  2 19  1  0  0  0
  3 17  1  0  0  0
  3 43  1  0  0  0
  4 18  1  0  0  0
  4 44  1  0  0  0
  5 21  1  0  0  0
  6 35  1  0  0  0
  8 30  1  0  0  0
  8 33  1  0  0  0
  9 33  2  0  0  0
 10 11  1  0  0  0
 10 20  1  0  0  0
 10 24  1  0  0  0
 11 28  2  0  0  0
 12 27  1  0  0  0
 12 45  1  0  0  0
 13 22  3  0  0  0
 14 26  2  0  0  0
 14 28  1  0  0  0
 15 26  1  0  0  0
 15 46  1  0  0  0
 15 47  1  0  0  0
 16 17  1  0  0  0
 16 20  1  0  0  0
 16 22  1  0  0  0
 17 18  1  0  0  0
 18 19  1  0  0  0
 19 21  1  0  0  0
 20 23  2  0  0  0
 23 25  1  0  0  0
 24 25  2  0  0  0
 24 26  1  0  0  0
 27 33  1  0  0  0
 27 34  1  0  0  0
 29 30  1  0  0  0
 29 31  1  0  0  0
 29 32  1  0  0  0
 31 36  1  0  0  0
 32 37  1  0  0  0
 35 38  2  0  0  0
 35 39  1  0  0  0
 38 40  1  0  0  0
 39 41  2  0  0  0
 40 42  2  0  0  0
 41 42  1  0  0  0
M  END
>  <CHROM.0>
159.04333987,-178.93487634,65.78996598

>  <CHROM.1>
-16.98314992,172.85098418,-61.51472652,64.76211061,-175.81471891,-82.11409405
-129.08423621,-59.23011183,-1.68213177,-77.74653248,150.64005595,91.72515993
148.27850189,158.16079026,-75.58653241,69.10923779,-49.40473358,-3.98482819
17.20401703,0.30737176,-0.72703431,-0.75462849

>  <HEADER>
                                                                          

>  <MASTER>
        0    0    0    0    0    0    0    0   77    0   77    0          

>  <Name>
Remdesivir.pdb

>  <RI>
-1.04741e+09

>  <Rbt.Current_Directory>
/root/miniconda3/envs/rdock/share/rxdock-2013.1.1_148c5bd1-0/data/ligands/prepped_ligands/Remdesivir

>  <Rbt.Executable>
rbdock/0.1.0

>  <Rbt.Library>
librxdock.so/0.1.0

>  <Rbt.Parameter_File>
/root/miniconda3/envs/rdock/share/rxdock-2013.1.1_148c5bd1-0/data/scripts/dock.prm

>  <Rbt.Receptor>
def.prm

>  <SCORE>
-32.7044

>  <SCORE.INTER>
-16.0963

>  <SCORE.INTER.CONST>
1

>  <SCORE.INTER.POLAR>
-0.747577

>  <SCORE.INTER.REPUL>
0.013669

>  <SCORE.INTER.ROT>
14

>  <SCORE.INTER.VDW>
-33.0229

>  <SCORE.INTER.norm>
-0.383244

>  <SCORE.INTRA>
-16.284

>  <SCORE.INTRA.DIHEDRAL>
-17.3374

>  <SCORE.INTRA.DIHEDRAL.0>
33.3194

>  <SCORE.INTRA.POLAR>
-0.802546

>  <SCORE.INTRA.POLAR.0>
0

>  <SCORE.INTRA.REPUL>
-0.188091

>  <SCORE.INTRA.REPUL.0>
0.188091

>  <SCORE.INTRA.VDW>
-3.94622

>  <SCORE.INTRA.VDW.0>
-0.0599272

>  <SCORE.INTRA.norm>
-0.387715

>  <SCORE.RESTR>
0

>  <SCORE.RESTR.CAVITY>
0

>  <SCORE.RESTR.norm>
0

>  <SCORE.SYSTEM>
-0.324133

>  <SCORE.SYSTEM.CONST>
0

>  <SCORE.SYSTEM.DIHEDRAL>
1.07492

>  <SCORE.SYSTEM.POLAR>
-0.012163

>  <SCORE.SYSTEM.VDW>
-0.820239

>  <SCORE.SYSTEM.norm>
-0.00771744

>  <SCORE.heavy>
42

>  <SCORE.norm>
-0.778677

>  <TITLE>
    121304016_D                                                           

$$$$
Remdesivir.pdb
  RxDock  02242113113D
librxdock.so/0.1.0
 47 50  0  0  0  0  0  0  0  0999 V2000
  -51.0004   -6.7625   17.5552 P   0  0  0  0  0  0
  -50.1230   -2.6221   16.4694 O   0  0  0  0  0  0
  -49.6807   -2.5162   12.8969 O   0  0  0  0  0  0
  -52.1590   -2.6901   13.7536 O   0  0  0  0  0  0
  -51.0399   -5.5223   16.5292 O   0  0  0  0  0  0
  -52.5618   -7.0613   17.8335 O   0  0  0  0  0  0
  -50.3455   -7.9566   16.9113 O   0  0  0  0  0  0
  -50.4427   -3.8309   19.1883 O   0  0  0  0  0  0
  -50.9773   -4.0436   21.3622 O   0  0  0  0  0  0
  -47.1826   -1.2433   16.2502 N   0  0  0  0  0  0
  -47.5484   -0.0215   16.7412 N   0  0  0  0  0  0
  -50.2471   -6.3943   18.8057 N   0  0  0  0  0  0
  -49.9810    0.3101   14.8512 N   0  0  0  0  0  0
  -45.2907    0.3908   17.4250 N   0  0  0  0  0  0
  -43.6278   -1.1784   17.0533 N   0  0  0  0  0  0
  -49.3498   -2.1740   15.3410 C   0  0  0  0  0  0
  -49.7949   -3.1106   14.1992 C   0  0  0  0  0  0
  -51.2491   -3.4789   14.5349 C   0  0  0  0  0  0
  -51.3957   -3.1312   16.0283 C   0  0  0  0  0  0
  -47.8562   -2.2473   15.6344 C   0  0  0  0  0  0
  -51.8094   -4.3549   16.8633 C   0  0  0  0  0  0
  -49.7066   -0.7713   15.0655 C   0  0  0  0  0  0
  -47.0296   -3.2714   15.3375 C   0  0  0  0  0  0
  -45.8962   -1.6735   16.3296 C   0  0  0  0  0  0
  -45.7557   -2.9092   15.7846 C   0  0  0  0  0  0
  -44.9472   -0.8106   16.9394 C   0  0  0  0  0  0
  -51.1359   -5.9758   19.8962 C   0  0  0  0  0  0
  -46.6155    0.7191   17.2908 C   0  0  0  0  0  0
  -51.7040   -1.7867   19.8129 C   0  0  0  0  0  0
  -50.3667   -2.4001   19.3399 C   0  0  0  0  0  0
  -51.9279   -0.4326   19.1012 C   0  0  0  0  0  0
  -52.8736   -2.7481   19.4936 C   0  0  0  0  0  0
  -50.8618   -4.5339   20.2542 C   0  0  0  0  0  0
  -50.8582   -6.8592   21.1230 C   0  0  0  0  0  0
  -53.4527   -7.2684   16.8169 C   0  0  0  0  0  0
  -50.8533    0.6026   19.4796 C   0  0  0  0  0  0
  -54.0944   -2.4708   20.3911 C   0  0  0  0  0  0
  -53.8479   -8.5426   16.4510 C   0  0  0  0  0  0
  -53.9740   -6.1804   16.1447 C   0  0  0  0  0  0
  -54.7478   -8.7228   15.4271 C   0  0  0  0  0  0
  -54.8728   -6.3620   15.1196 C   0  0  0  0  0  0
  -55.2595   -7.6323   14.7601 C   0  0  0  0  0  0
  -50.1705   -1.6382   12.8506 H   0  0  0  0  0  0
  -53.1043   -3.0179   13.8512 H   0  0  0  0  0  0
  -49.5777   -5.6444   18.5974 H   0  0  0  0  0  0
  -43.0534   -0.6308   17.4330 H   0  0  0  0  0  0
  -43.3533   -1.9579   16.7490 H   0  0  0  0  0  0
  1  5  1  0  0  0
  1  6  1  0  0  0
  1  7  2  0  0  0
  1 12  1  0  0  0
  2 16  1  0  0  0
  2 19  1  0  0  0
  3 17  1  0  0  0
  3 43  1  0  0  0
  4 18  1  0  0  0
  4 44  1  0  0  0
  5 21  1  0  0  0
  6 35  1  0  0  0
  8 30  1  0  0  0
  8 33  1  0  0  0
  9 33  2  0  0  0
 10 11  1  0  0  0
 10 20  1  0  0  0
 10 24  1  0  0  0
 11 28  2  0  0  0
 12 27  1  0  0  0
 12 45  1  0  0  0
 13 22  3  0  0  0
 14 26  2  0  0  0
 14 28  1  0  0  0
 15 26  1  0  0  0
 15 46  1  0  0  0
 15 47  1  0  0  0
 16 17  1  0  0  0
 16 20  1  0  0  0
 16 22  1  0  0  0
 17 18  1  0  0  0
 18 19  1  0  0  0
 19 21  1  0  0  0
 20 23  2  0  0  0
 23 25  1  0  0  0
 24 25  2  0  0  0
 24 26  1  0  0  0
 27 33  1  0  0  0
 27 34  1  0  0  0
 29 30  1  0  0  0
 29 31  1  0  0  0
 29 32  1  0  0  0
 31 36  1  0  0  0
 32 37  1  0  0  0
 35 38  2  0  0  0
 35 39  1  0  0  0
 38 40  1  0  0  0
 39 41  2  0  0  0
 40 42  2  0  0  0
 41 42  1  0  0  0
M  END
>  <CHROM.0>
63.94452689,-42.31720637,-176.55417858

>  <CHROM.1>
52.21035623,53.21379379,96.87487121,-54.21548967,170.90225555,161.94749339
99.91472599,-54.63733874,-11.28462542,-116.75251044,-86.14539886,-73.42662670
30.56103926,-141.99632515,-63.78197513,157.90415069,-50.37810162,-3.66252109
17.10571152,-3.07411534,0.76633401,1.36971441

>  <HEADER>
                                                                          

>  <MASTER>
        0    0    0    0    0    0    0    0   77    0   77    0          

>  <Name>
Remdesivir.pdb

>  <RI>
-1.04741e+09

>  <Rbt.Current_Directory>
/root/miniconda3/envs/rdock/share/rxdock-2013.1.1_148c5bd1-0/data/ligands/prepped_ligands/Remdesivir

>  <Rbt.Executable>
rbdock/0.1.0

>  <Rbt.Library>
librxdock.so/0.1.0

>  <Rbt.Parameter_File>
/root/miniconda3/envs/rdock/share/rxdock-2013.1.1_148c5bd1-0/data/scripts/dock.prm

>  <Rbt.Receptor>
def.prm

>  <SCORE>
-14.5371

>  <SCORE.INTER>
-7.08049

>  <SCORE.INTER.CONST>
1

>  <SCORE.INTER.POLAR>
-0.903737

>  <SCORE.INTER.REPUL>
0.673463

>  <SCORE.INTER.ROT>
14

>  <SCORE.INTER.VDW>
-26.7751

>  <SCORE.INTER.norm>
-0.168583

>  <SCORE.INTRA>
-7.40865

>  <SCORE.INTRA.DIHEDRAL>
-12.7326

>  <SCORE.INTRA.DIHEDRAL.0>
33.3194

>  <SCORE.INTRA.POLAR>
-0.156253

>  <SCORE.INTRA.POLAR.0>
0

>  <SCORE.INTRA.REPUL>
-0.0342976

>  <SCORE.INTRA.REPUL.0>
0.188091

>  <SCORE.INTRA.VDW>
-0.339603

>  <SCORE.INTRA.VDW.0>
-0.0599272

>  <SCORE.INTRA.norm>
-0.176396

>  <SCORE.RESTR>
0.000511815

>  <SCORE.RESTR.CAVITY>
0.000511815

>  <SCORE.RESTR.norm>
1.21861e-05

>  <SCORE.SYSTEM>
-0.0484973

>  <SCORE.SYSTEM.CONST>
0

>  <SCORE.SYSTEM.DIHEDRAL>
1.49787

>  <SCORE.SYSTEM.POLAR>
-0.00952094

>  <SCORE.SYSTEM.VDW>
-0.765063

>  <SCORE.SYSTEM.norm>
-0.0011547

>  <SCORE.heavy>
42

>  <SCORE.norm>
-0.346122

>  <TITLE>
    121304016_D                                                           

$$$$
