Remdesivir.pdb
  RxDock  02242101323D
librxdock.so/0.1.0
 47 50  0  0  0  0  0  0  0  0999 V2000
  -49.9605   -0.7041   17.7937 P   0  0  0  0  0  0
  -50.5698   -3.4529   16.5548 O   0  0  0  0  0  0
  -52.3625   -5.9227   14.6427 O   0  0  0  0  0  0
  -53.0555   -3.4195   14.2428 O   0  0  0  0  0  0
  -51.2462   -1.5401   18.2841 O   0  0  0  0  0  0
  -48.8293   -1.8405   17.6099 O   0  0  0  0  0  0
  -50.2435   -0.0292   16.4770 O   0  0  0  0  0  0
  -46.2823   -0.3255   20.1322 O   0  0  0  0  0  0
  -48.3013   -0.5545   21.0956 O   0  0  0  0  0  0
  -50.4417   -6.7375   17.4543 N   0  0  0  0  0  0
  -51.7527   -7.0685   17.6518 N   0  0  0  0  0  0
  -49.5804    0.3346   18.8153 N   0  0  0  0  0  0
  -49.4006   -4.5005   13.5930 N   0  0  0  0  0  0
  -51.0921   -8.8767   19.0761 N   0  0  0  0  0  0
  -48.8552   -9.3010   19.5031 N   0  0  0  0  0  0
  -50.5754   -4.7402   15.9107 C   0  0  0  0  0  0
  -52.0755   -5.0649   15.7581 C   0  0  0  0  0  0
  -52.7634   -3.6972   15.6205 C   0  0  0  0  0  0
  -51.7249   -2.6924   16.1538 C   0  0  0  0  0  0
  -49.8155   -5.7711   16.7366 C   0  0  0  0  0  0
  -52.2733   -1.8750   17.3358 C   0  0  0  0  0  0
  -49.9115   -4.6039   14.6024 C   0  0  0  0  0  0
  -48.4760   -5.8654   16.8669 C   0  0  0  0  0  0
  -49.4438   -7.4460   18.0445 C   0  0  0  0  0  0
  -48.2244   -6.9490   17.7132 C   0  0  0  0  0  0
  -49.8105   -8.5403   18.8723 C   0  0  0  0  0  0
  -48.1278    0.5162   18.9205 C   0  0  0  0  0  0
  -52.0128   -8.0924   18.4296 C   0  0  0  0  0  0
  -44.2271   -0.2187   18.7449 C   0  0  0  0  0  0
  -45.7001   -0.6721   18.8607 C   0  0  0  0  0  0
  -43.4615   -0.6296   20.0236 C   0  0  0  0  0  0
  -43.5661   -0.8669   17.5051 C   0  0  0  0  0  0
  -47.6163   -0.1669   20.1671 C   0  0  0  0  0  0
  -47.8260    2.0205   19.0125 C   0  0  0  0  0  0
  -47.8329   -1.7276   16.6802 C   0  0  0  0  0  0
  -42.1600    0.1733   20.1998 C   0  0  0  0  0  0
  -43.5710   -2.4044   17.6009 C   0  0  0  0  0  0
  -47.4973   -0.5055   16.1257 C   0  0  0  0  0  0
  -47.1422   -2.8584   16.2909 C   0  0  0  0  0  0
  -46.4888   -0.4192   15.1950 C   0  0  0  0  0  0
  -46.1347   -2.7712   15.3588 C   0  0  0  0  0  0
  -45.8080   -1.5526   14.8102 C   0  0  0  0  0  0
  -51.9403   -6.8288   14.7590 H   0  0  0  0  0  0
  -53.3830   -2.4769   14.1209 H   0  0  0  0  0  0
  -49.9643    0.0748   19.7312 H   0  0  0  0  0  0
  -49.1005   -9.9745   20.0132 H   0  0  0  0  0  0
  -47.9996   -9.1190   19.4005 H   0  0  0  0  0  0
  1  5  1  0  0  0
  1  6  1  0  0  0
  1  7  2  0  0  0
  1 12  1  0  0  0
  2 16  1  0  0  0
  2 19  1  0  0  0
  3 17  1  0  0  0
  3 43  1  0  0  0
  4 18  1  0  0  0
  4 44  1  0  0  0
  5 21  1  0  0  0
  6 35  1  0  0  0
  8 30  1  0  0  0
  8 33  1  0  0  0
  9 33  2  0  0  0
 10 11  1  0  0  0
 10 20  1  0  0  0
 10 24  1  0  0  0
 11 28  2  0  0  0
 12 27  1  0  0  0
 12 45  1  0  0  0
 13 22  3  0  0  0
 14 26  2  0  0  0
 14 28  1  0  0  0
 15 26  1  0  0  0
 15 46  1  0  0  0
 15 47  1  0  0  0
 16 17  1  0  0  0
 16 20  1  0  0  0
 16 22  1  0  0  0
 17 18  1  0  0  0
 18 19  1  0  0  0
 19 21  1  0  0  0
 20 23  2  0  0  0
 23 25  1  0  0  0
 24 25  2  0  0  0
 24 26  1  0  0  0
 27 33  1  0  0  0
 27 34  1  0  0  0
 29 30  1  0  0  0
 29 31  1  0  0  0
 29 32  1  0  0  0
 31 36  1  0  0  0
 32 37  1  0  0  0
 35 38  2  0  0  0
 35 39  1  0  0  0
 38 40  1  0  0  0
 39 41  2  0  0  0
 40 42  2  0  0  0
 41 42  1  0  0  0
M  END
>  <CHROM.0>
-54.20477479,-64.04762162,175.83490579

>  <CHROM.1>
-100.14732870,149.39878038,143.79995215,64.02020884,-171.79166458,58.05218214
19.15712612,153.99612717,140.55699699,-103.54638729,105.34030416,27.88059419
164.09583186,47.23033138,-160.78614568,-60.74769015,-48.77584121,-3.00243705
17.43187767,0.77415359,-0.42518428,-0.11558773

>  <HEADER>
                                                                          

>  <MASTER>
        0    0    0    0    0    0    0    0   77    0   77    0          

>  <Name>
Remdesivir.pdb

>  <RI>
-9.4624e+08

>  <Rbt.Current_Directory>
/root/miniconda3/envs/rdock/share/rxdock-2013.1.1_148c5bd1-0/data/ligands/prepped_ligands/Remdesivir

>  <Rbt.Executable>
rbdock/0.1.0

>  <Rbt.Library>
librxdock.so/0.1.0

>  <Rbt.Parameter_File>
/root/miniconda3/envs/rdock/share/rxdock-2013.1.1_148c5bd1-0/data/scripts/dock.prm

>  <Rbt.Receptor>
def.prm

>  <SCORE>
-18.6424

>  <SCORE.INTER>
-12.236

>  <SCORE.INTER.CONST>
1

>  <SCORE.INTER.POLAR>
-1.42109

>  <SCORE.INTER.REPUL>
0.0231932

>  <SCORE.INTER.ROT>
14

>  <SCORE.INTER.VDW>
-26.9203

>  <SCORE.INTER.norm>
-0.291334

>  <SCORE.INTRA>
-5.68171

>  <SCORE.INTRA.DIHEDRAL>
-6.72523

>  <SCORE.INTRA.DIHEDRAL.0>
33.3194

>  <SCORE.INTRA.POLAR>
0

>  <SCORE.INTRA.POLAR.0>
0

>  <SCORE.INTRA.REPUL>
-0.188091

>  <SCORE.INTRA.REPUL.0>
0.188091

>  <SCORE.INTRA.VDW>
-1.37864

>  <SCORE.INTRA.VDW.0>
-0.0599272

>  <SCORE.INTRA.norm>
-0.135279

>  <SCORE.RESTR>
0.295738

>  <SCORE.RESTR.CAVITY>
0.295738

>  <SCORE.RESTR.norm>
0.00704138

>  <SCORE.SYSTEM>
-1.02042

>  <SCORE.SYSTEM.CONST>
0

>  <SCORE.SYSTEM.DIHEDRAL>
0.20476

>  <SCORE.SYSTEM.VDW>
-1.1228

>  <SCORE.SYSTEM.norm>
-0.0242958

>  <SCORE.heavy>
42

>  <SCORE.norm>
-0.443867

>  <TITLE>
    121304016_D                                                           

$$$$
Remdesivir.pdb
  RxDock  02242101323D
librxdock.so/0.1.0
 47 50  0  0  0  0  0  0  0  0999 V2000
  -49.2806   -0.3442   18.3077 P   0  0  0  0  0  0
  -51.1893   -4.1710   16.7923 O   0  0  0  0  0  0
  -52.2143   -2.5065   13.7676 O   0  0  0  0  0  0
  -50.2843   -1.3536   15.1283 O   0  0  0  0  0  0
  -50.7285   -0.9770   18.6165 O   0  0  0  0  0  0
  -48.2884   -1.6101   18.4407 O   0  0  0  0  0  0
  -49.2372    0.2103   16.9077 O   0  0  0  0  0  0
  -46.0866    1.0272   19.5654 O   0  0  0  0  0  0
  -46.2476    1.1411   17.3254 O   0  0  0  0  0  0
  -52.7731   -6.4843   16.0746 N   0  0  0  0  0  0
  -51.8602   -7.0345   16.9298 N   0  0  0  0  0  0
  -48.9591    0.7519   19.2886 N   0  0  0  0  0  0
  -49.8010   -4.9695   13.8475 N   0  0  0  0  0  0
  -53.2459   -8.9715   17.1792 N   0  0  0  0  0  0
  -55.2671   -9.1424   16.0606 N   0  0  0  0  0  0
  -51.7277   -4.2662   15.4607 C   0  0  0  0  0  0
  -52.2245   -2.8362   15.1653 C   0  0  0  0  0  0
  -51.2946   -1.9197   15.9765 C   0  0  0  0  0  0
  -50.6489   -2.8552   17.0161 C   0  0  0  0  0  0
  -52.8304   -5.3156   15.3877 C   0  0  0  0  0  0
  -50.9288   -2.3915   18.4557 C   0  0  0  0  0  0
  -50.6392   -4.6637   14.5507 C   0  0  0  0  0  0
  -53.9660   -5.2369   14.6638 C   0  0  0  0  0  0
  -53.9183   -7.1420   15.7549 C   0  0  0  0  0  0
  -54.6790   -6.4167   14.8951 C   0  0  0  0  0  0
  -54.1325   -8.4186   16.3392 C   0  0  0  0  0  0
  -48.1379    1.8146   18.6967 C   0  0  0  0  0  0
  -52.1283   -8.2173   17.4298 C   0  0  0  0  0  0
  -44.0037    0.5186   20.8155 C   0  0  0  0  0  0
  -44.6479    0.9973   19.4948 C   0  0  0  0  0  0
  -42.5156    0.9368   20.8420 C   0  0  0  0  0  0
  -44.7453    1.1369   22.0247 C   0  0  0  0  0  0
  -46.7461    1.2937   18.4252 C   0  0  0  0  0  0
  -48.0516    2.9817   19.6933 C   0  0  0  0  0  0
  -47.2759   -1.8342   17.5493 C   0  0  0  0  0  0
  -41.7079    0.2669   19.7158 C   0  0  0  0  0  0
  -45.9551    0.2806   22.4440 C   0  0  0  0  0  0
  -47.5327   -2.1037   16.2170 C   0  0  0  0  0  0
  -45.9673   -1.7841   17.9882 C   0  0  0  0  0  0
  -46.4958   -2.3221   15.3408 C   0  0  0  0  0  0
  -44.9310   -2.0043   17.1112 C   0  0  0  0  0  0
  -45.1945   -2.2738   15.7881 C   0  0  0  0  0  0
  -52.5283   -1.5631   13.6113 H   0  0  0  0  0  0
  -49.7256   -2.0693   14.6968 H   0  0  0  0  0  0
  -48.4775    0.3554   20.1039 H   0  0  0  0  0  0
  -55.3828   -9.9322   16.4306 H   0  0  0  0  0  0
  -55.8789   -8.8217   15.5142 H   0  0  0  0  0  0
  1  5  1  0  0  0
  1  6  1  0  0  0
  1  7  2  0  0  0
  1 12  1  0  0  0
  2 16  1  0  0  0
  2 19  1  0  0  0
  3 17  1  0  0  0
  3 43  1  0  0  0
  4 18  1  0  0  0
  4 44  1  0  0  0
  5 21  1  0  0  0
  6 35  1  0  0  0
  8 30  1  0  0  0
  8 33  1  0  0  0
  9 33  2  0  0  0
 10 11  1  0  0  0
 10 20  1  0  0  0
 10 24  1  0  0  0
 11 28  2  0  0  0
 12 27  1  0  0  0
 12 45  1  0  0  0
 13 22  3  0  0  0
 14 26  2  0  0  0
 14 28  1  0  0  0
 15 26  1  0  0  0
 15 46  1  0  0  0
 15 47  1  0  0  0
 16 17  1  0  0  0
 16 20  1  0  0  0
 16 22  1  0  0  0
 17 18  1  0  0  0
 18 19  1  0  0  0
 19 21  1  0  0  0
 20 23  2  0  0  0
 23 25  1  0  0  0
 24 25  2  0  0  0
 24 26  1  0  0  0
 27 33  1  0  0  0
 27 34  1  0  0  0
 29 30  1  0  0  0
 29 31  1  0  0  0
 29 32  1  0  0  0
 31 36  1  0  0  0
 32 37  1  0  0  0
 35 38  2  0  0  0
 35 39  1  0  0  0
 38 40  1  0  0  0
 39 41  2  0  0  0
 40 42  2  0  0  0
 41 42  1  0  0  0
M  END
>  <CHROM.0>
141.62692589,-145.45811983,-59.20684062

>  <CHROM.1>
-21.53276089,137.15239045,-147.62151326,-179.00171868,-59.58499040,-59.55743112
-63.95233021,-173.17832579,20.91359403,-69.71174529,-37.78754110,-164.65044496
-67.44367550,-161.74385131,-63.05893638,86.79109602,-49.22039698,-2.37758257
17.38770188,0.67491903,-0.48141577,-0.03382338

>  <HEADER>
                                                                          

>  <MASTER>
        0    0    0    0    0    0    0    0   77    0   77    0          

>  <Name>
Remdesivir.pdb

>  <RI>
-9.4624e+08

>  <Rbt.Current_Directory>
/root/miniconda3/envs/rdock/share/rxdock-2013.1.1_148c5bd1-0/data/ligands/prepped_ligands/Remdesivir

>  <Rbt.Executable>
rbdock/0.1.0

>  <Rbt.Library>
librxdock.so/0.1.0

>  <Rbt.Parameter_File>
/root/miniconda3/envs/rdock/share/rxdock-2013.1.1_148c5bd1-0/data/scripts/dock.prm

>  <Rbt.Receptor>
def.prm

>  <SCORE>
-16.1312

>  <SCORE.INTER>
-7.80769

>  <SCORE.INTER.CONST>
1

>  <SCORE.INTER.POLAR>
-0.281704

>  <SCORE.INTER.REPUL>
0

>  <SCORE.INTER.ROT>
14

>  <SCORE.INTER.VDW>
-26.2499

>  <SCORE.INTER.norm>
-0.185897

>  <SCORE.INTRA>
-11.2922

>  <SCORE.INTRA.DIHEDRAL>
-14.6785

>  <SCORE.INTRA.DIHEDRAL.0>
33.3194

>  <SCORE.INTRA.POLAR>
0

>  <SCORE.INTRA.POLAR.0>
0

>  <SCORE.INTRA.REPUL>
-0.00558423

>  <SCORE.INTRA.REPUL.0>
0.188091

>  <SCORE.INTRA.VDW>
-3.92503

>  <SCORE.INTRA.VDW.0>
-0.0599272

>  <SCORE.INTRA.norm>
-0.268862

>  <SCORE.RESTR>
0.0932814

>  <SCORE.RESTR.CAVITY>
0.0932814

>  <SCORE.RESTR.norm>
0.00222098

>  <SCORE.SYSTEM>
2.87539

>  <SCORE.SYSTEM.CONST>
0

>  <SCORE.SYSTEM.DIHEDRAL>
7.02594

>  <SCORE.SYSTEM.POLAR>
-0.00278511

>  <SCORE.SYSTEM.VDW>
-0.628116

>  <SCORE.SYSTEM.norm>
0.0684616

>  <SCORE.heavy>
42

>  <SCORE.norm>
-0.384077

>  <TITLE>
    121304016_D                                                           

$$$$
Remdesivir.pdb
  RxDock  02242101323D
librxdock.so/0.1.0
 47 50  0  0  0  0  0  0  0  0999 V2000
  -49.9125   -5.8201   17.0494 P   0  0  0  0  0  0
  -49.1747   -1.4801   19.2160 O   0  0  0  0  0  0
  -50.2115    0.2011   16.2046 O   0  0  0  0  0  0
  -51.7382   -1.7802   17.0105 O   0  0  0  0  0  0
  -49.2056   -4.4348   17.4657 O   0  0  0  0  0  0
  -48.7865   -6.9257   17.3880 O   0  0  0  0  0  0
  -51.1438   -6.0538   17.8852 O   0  0  0  0  0  0
  -52.6848   -5.5205   14.6764 O   0  0  0  0  0  0
  -52.7451   -3.2909   14.9626 O   0  0  0  0  0  0
  -46.6975   -0.1163   18.5741 N   0  0  0  0  0  0
  -46.3011   -1.4230   18.5190 N   0  0  0  0  0  0
  -50.2936   -5.8059   15.5928 N   0  0  0  0  0  0
  -51.1420    1.2301   19.3626 N   0  0  0  0  0  0
  -44.0098   -0.7451   18.6761 N   0  0  0  0  0  0
  -43.4379    1.4939   18.8355 N   0  0  0  0  0  0
  -49.2169   -0.2695   18.4383 C   0  0  0  0  0  0
  -49.5170   -0.7650   17.0088 C   0  0  0  0  0  0
  -50.3408   -2.0485   17.2006 C   0  0  0  0  0  0
  -50.0749   -2.4577   18.6616 C   0  0  0  0  0  0
  -47.9060    0.4999   18.5478 C   0  0  0  0  0  0
  -49.4709   -3.8688   18.7602 C   0  0  0  0  0  0
  -50.3039    0.5766   18.9611 C   0  0  0  0  0  0
  -47.7664    1.8391   18.6311 C   0  0  0  0  0  0
  -45.7879    0.8877   18.6786 C   0  0  0  0  0  0
  -46.3960    2.1012   18.7161 C   0  0  0  0  0  0
  -44.4138    0.5320   18.7285 C   0  0  0  0  0  0
  -50.6187   -4.4590   15.1086 C   0  0  0  0  0  0
  -45.0143   -1.6727   18.5702 C   0  0  0  0  0  0
  -54.7772   -6.6331   15.4136 C   0  0  0  0  0  0
  -54.1192   -5.5390   14.5428 C   0  0  0  0  0  0
  -56.3140   -6.5527   15.2646 C   0  0  0  0  0  0
  -54.2792   -8.0318   14.9780 C   0  0  0  0  0  0
  -52.1122   -4.3297   14.9217 C   0  0  0  0  0  0
  -49.9226   -4.2420   13.7555 C   0  0  0  0  0  0
  -49.0158   -7.9483   18.2664 C   0  0  0  0  0  0
  -56.8772   -5.2253   15.8035 C   0  0  0  0  0  0
  -54.6240   -9.1064   16.0265 C   0  0  0  0  0  0
  -49.7495   -7.7561   19.4233 C   0  0  0  0  0  0
  -48.5087   -9.2025   17.9888 C   0  0  0  0  0  0
  -49.9682   -8.8025   20.2882 C   0  0  0  0  0  0
  -48.7267  -10.2480   18.8554 C   0  0  0  0  0  0
  -49.4556  -10.0486   20.0050 C   0  0  0  0  0  0
  -50.5036   -0.1949   15.3267 H   0  0  0  0  0  0
  -52.0006   -1.8738   16.0446 H   0  0  0  0  0  0
  -51.0928   -6.4316   15.4388 H   0  0  0  0  0  0
  -42.5916    1.2554   18.8663 H   0  0  0  0  0  0
  -43.6535    2.3469   18.8738 H   0  0  0  0  0  0
  1  5  1  0  0  0
  1  6  1  0  0  0
  1  7  2  0  0  0
  1 12  1  0  0  0
  2 16  1  0  0  0
  2 19  1  0  0  0
  3 17  1  0  0  0
  3 43  1  0  0  0
  4 18  1  0  0  0
  4 44  1  0  0  0
  5 21  1  0  0  0
  6 35  1  0  0  0
  8 30  1  0  0  0
  8 33  1  0  0  0
  9 33  2  0  0  0
 10 11  1  0  0  0
 10 20  1  0  0  0
 10 24  1  0  0  0
 11 28  2  0  0  0
 12 27  1  0  0  0
 12 45  1  0  0  0
 13 22  3  0  0  0
 14 26  2  0  0  0
 14 28  1  0  0  0
 15 26  1  0  0  0
 15 46  1  0  0  0
 15 47  1  0  0  0
 16 17  1  0  0  0
 16 20  1  0  0  0
 16 22  1  0  0  0
 17 18  1  0  0  0
 18 19  1  0  0  0
 19 21  1  0  0  0
 20 23  2  0  0  0
 23 25  1  0  0  0
 24 25  2  0  0  0
 24 26  1  0  0  0
 27 33  1  0  0  0
 27 34  1  0  0  0
 29 30  1  0  0  0
 29 31  1  0  0  0
 29 32  1  0  0  0
 31 36  1  0  0  0
 32 37  1  0  0  0
 35 38  2  0  0  0
 35 39  1  0  0  0
 38 40  1  0  0  0
 39 41  2  0  0  0
 40 42  2  0  0  0
 41 42  1  0  0  0
M  END
>  <CHROM.0>
-58.73530022,-47.59342564,-6.73136407

>  <CHROM.1>
-96.58636011,121.37013810,-30.72596814,-172.14048239,88.07000580,-121.00583462
-38.42260837,-130.32194220,-3.85218676,-106.09310529,38.80059392,-114.96573504
-26.50569080,177.61785331,-64.10917876,165.71269489,-49.90322593,-3.73153135
17.37874038,-2.32275762,-0.45065288,-0.10043331

>  <HEADER>
                                                                          

>  <MASTER>
        0    0    0    0    0    0    0    0   77    0   77    0          

>  <Name>
Remdesivir.pdb

>  <RI>
-9.4624e+08

>  <Rbt.Current_Directory>
/root/miniconda3/envs/rdock/share/rxdock-2013.1.1_148c5bd1-0/data/ligands/prepped_ligands/Remdesivir

>  <Rbt.Executable>
rbdock/0.1.0

>  <Rbt.Library>
librxdock.so/0.1.0

>  <Rbt.Parameter_File>
/root/miniconda3/envs/rdock/share/rxdock-2013.1.1_148c5bd1-0/data/scripts/dock.prm

>  <Rbt.Receptor>
def.prm

>  <SCORE>
-6.70534

>  <SCORE.INTER>
-4.25643

>  <SCORE.INTER.CONST>
1

>  <SCORE.INTER.POLAR>
-1.33015

>  <SCORE.INTER.REPUL>
0.747794

>  <SCORE.INTER.ROT>
14

>  <SCORE.INTER.VDW>
-22.8729

>  <SCORE.INTER.norm>
-0.101344

>  <SCORE.INTRA>
-5.21421

>  <SCORE.INTRA.DIHEDRAL>
1.86376

>  <SCORE.INTRA.DIHEDRAL.0>
33.3194

>  <SCORE.INTRA.POLAR>
-0.870556

>  <SCORE.INTRA.POLAR.0>
0

>  <SCORE.INTRA.REPUL>
-0.13017

>  <SCORE.INTRA.REPUL.0>
0.188091

>  <SCORE.INTRA.VDW>
-2.53535

>  <SCORE.INTRA.VDW.0>
-0.0599272

>  <SCORE.INTRA.norm>
-0.124148

>  <SCORE.RESTR>
0.854205

>  <SCORE.RESTR.CAVITY>
0.854205

>  <SCORE.RESTR.norm>
0.0203382

>  <SCORE.SYSTEM>
1.91109

>  <SCORE.SYSTEM.CONST>
0

>  <SCORE.SYSTEM.DIHEDRAL>
4.22021

>  <SCORE.SYSTEM.VDW>
-0.199011

>  <SCORE.SYSTEM.norm>
0.0455022

>  <SCORE.heavy>
42

>  <SCORE.norm>
-0.159651

>  <TITLE>
    121304016_D                                                           

$$$$
Remdesivir.pdb
  RxDock  02242101323D
librxdock.so/0.1.0
 47 50  0  0  0  0  0  0  0  0999 V2000
  -51.1230   -6.2788   16.6594 P   0  0  0  0  0  0
  -50.8743   -3.4607   20.1514 O   0  0  0  0  0  0
  -53.0031   -0.7194   19.1904 O   0  0  0  0  0  0
  -54.2182   -2.9507   19.8619 O   0  0  0  0  0  0
  -51.1834   -5.1425   17.7984 O   0  0  0  0  0  0
  -49.7521   -7.0628   16.9925 O   0  0  0  0  0  0
  -52.3013   -7.2093   16.7822 O   0  0  0  0  0  0
  -49.2329   -2.5849   15.6761 O   0  0  0  0  0  0
  -51.3779   -3.0618   16.1539 O   0  0  0  0  0  0
  -49.7889   -0.0405   19.2383 N   0  0  0  0  0  0
  -50.7669    0.8687   18.9478 N   0  0  0  0  0  0
  -51.1187   -5.6574   15.2880 N   0  0  0  0  0  0
  -51.8962   -1.2140   22.4196 N   0  0  0  0  0  0
  -49.1071    2.4448   18.2441 N   0  0  0  0  0  0
  -46.8537    1.9127   18.3132 N   0  0  0  0  0  0
  -51.0879   -2.0390   20.0797 C   0  0  0  0  0  0
  -52.1899   -1.8895   19.0110 C   0  0  0  0  0  0
  -53.0160   -3.1818   19.1123 C   0  0  0  0  0  0
  -52.1003   -4.1615   19.8701 C   0  0  0  0  0  0
  -49.7992   -1.3071   19.7246 C   0  0  0  0  0  0
  -51.8223   -5.4344   19.0527 C   0  0  0  0  0  0
  -51.5438   -1.5741   21.4014 C   0  0  0  0  0  0
  -48.5448   -1.7908   19.8368 C   0  0  0  0  0  0
  -48.4770    0.2568   19.0464 C   0  0  0  0  0  0
  -47.6795   -0.7839   19.3996 C   0  0  0  0  0  0
  -48.1588    1.5427   18.5343 C   0  0  0  0  0  0
  -49.9868   -4.7450   15.0864 C   0  0  0  0  0  0
  -50.3949    2.0358   18.4784 C   0  0  0  0  0  0
  -48.3529   -0.2642   15.6781 C   0  0  0  0  0  0
  -49.4151   -1.2564   16.2032 C   0  0  0  0  0  0
  -46.9705   -0.6350   16.2628 C   0  0  0  0  0  0
  -48.2994   -0.3097   14.1324 C   0  0  0  0  0  0
  -50.3039   -3.3964   15.6890 C   0  0  0  0  0  0
  -49.7533   -4.5778   13.5764 C   0  0  0  0  0  0
  -49.6254   -7.8663   18.0918 C   0  0  0  0  0  0
  -46.4517   -1.9753   15.7115 C   0  0  0  0  0  0
  -49.5921    0.2460   13.5055 C   0  0  0  0  0  0
  -49.5603   -9.2432   17.9766 C   0  0  0  0  0  0
  -49.5545   -7.2892   19.3445 C   0  0  0  0  0  0
  -49.4295  -10.0280   19.0981 C   0  0  0  0  0  0
  -49.4253   -8.0752   20.4657 C   0  0  0  0  0  0
  -49.3633   -9.4441   20.3433 C   0  0  0  0  0  0
  -53.7103   -0.6519   18.4776 H   0  0  0  0  0  0
  -54.0133   -2.6952   20.8124 H   0  0  0  0  0  0
  -52.0004   -5.1549   15.1338 H   0  0  0  0  0  0
  -46.6749    2.7129   17.9944 H   0  0  0  0  0  0
  -46.1952    1.3545   18.4880 H   0  0  0  0  0  0
  1  5  1  0  0  0
  1  6  1  0  0  0
  1  7  2  0  0  0
  1 12  1  0  0  0
  2 16  1  0  0  0
  2 19  1  0  0  0
  3 17  1  0  0  0
  3 43  1  0  0  0
  4 18  1  0  0  0
  4 44  1  0  0  0
  5 21  1  0  0  0
  6 35  1  0  0  0
  8 30  1  0  0  0
  8 33  1  0  0  0
  9 33  2  0  0  0
 10 11  1  0  0  0
 10 20  1  0  0  0
 10 24  1  0  0  0
 11 28  2  0  0  0
 12 27  1  0  0  0
 12 45  1  0  0  0
 13 22  3  0  0  0
 14 26  2  0  0  0
 14 28  1  0  0  0
 15 26  1  0  0  0
 15 46  1  0  0  0
 15 47  1  0  0  0
 16 17  1  0  0  0
 16 20  1  0  0  0
 16 22  1  0  0  0
 17 18  1  0  0  0
 18 19  1  0  0  0
 19 21  1  0  0  0
 20 23  2  0  0  0
 23 25  1  0  0  0
 24 25  2  0  0  0
 24 26  1  0  0  0
 27 33  1  0  0  0
 27 34  1  0  0  0
 29 30  1  0  0  0
 29 31  1  0  0  0
 29 32  1  0  0  0
 31 36  1  0  0  0
 32 37  1  0  0  0
 35 38  2  0  0  0
 35 39  1  0  0  0
 38 40  1  0  0  0
 39 41  2  0  0  0
 40 42  2  0  0  0
 41 42  1  0  0  0
M  END
>  <CHROM.0>
-176.04890581,-55.61057468,-65.76717174

>  <CHROM.1>
-89.08899315,70.77761242,58.74644591,179.96887141,-63.60870488,-165.69167653
108.50697639,-158.35830684,-2.08552718,-81.70515888,161.32264451,-59.55287515
172.17399590,-68.31148225,67.82505985,67.57080825,-50.15342088,-3.11757561
17.91216518,-1.94241617,1.08036836,0.29192730

>  <HEADER>
                                                                          

>  <MASTER>
        0    0    0    0    0    0    0    0   77    0   77    0          

>  <Name>
Remdesivir.pdb

>  <RI>
-9.4624e+08

>  <Rbt.Current_Directory>
/root/miniconda3/envs/rdock/share/rxdock-2013.1.1_148c5bd1-0/data/ligands/prepped_ligands/Remdesivir

>  <Rbt.Executable>
rbdock/0.1.0

>  <Rbt.Library>
librxdock.so/0.1.0

>  <Rbt.Parameter_File>
/root/miniconda3/envs/rdock/share/rxdock-2013.1.1_148c5bd1-0/data/scripts/dock.prm

>  <Rbt.Receptor>
def.prm

>  <SCORE>
-15.7715

>  <SCORE.INTER>
-0.87902

>  <SCORE.INTER.CONST>
1

>  <SCORE.INTER.POLAR>
-0.7963

>  <SCORE.INTER.REPUL>
0.522199

>  <SCORE.INTER.ROT>
14

>  <SCORE.INTER.VDW>
-20.1826

>  <SCORE.INTER.norm>
-0.020929

>  <SCORE.INTRA>
-15.9783

>  <SCORE.INTRA.DIHEDRAL>
-21.5331

>  <SCORE.INTRA.DIHEDRAL.0>
33.3194

>  <SCORE.INTRA.POLAR>
0

>  <SCORE.INTRA.POLAR.0>
0

>  <SCORE.INTRA.REPUL>
-0.188091

>  <SCORE.INTRA.REPUL.0>
0.188091

>  <SCORE.INTRA.VDW>
-4.27126

>  <SCORE.INTRA.VDW.0>
-0.0599272

>  <SCORE.INTRA.norm>
-0.380435

>  <SCORE.RESTR>
2.00861

>  <SCORE.RESTR.CAVITY>
2.00861

>  <SCORE.RESTR.norm>
0.0478241

>  <SCORE.SYSTEM>
-0.92287

>  <SCORE.SYSTEM.CONST>
0

>  <SCORE.SYSTEM.DIHEDRAL>
0.216415

>  <SCORE.SYSTEM.VDW>
-1.03108

>  <SCORE.SYSTEM.norm>
-0.0219731

>  <SCORE.heavy>
42

>  <SCORE.norm>
-0.375513

>  <TITLE>
    121304016_D                                                           

$$$$
Remdesivir.pdb
  RxDock  02242101333D
librxdock.so/0.1.0
 47 50  0  0  0  0  0  0  0  0999 V2000
  -48.3266   -0.3742   16.8611 P   0  0  0  0  0  0
  -50.2596   -3.9572   18.0193 O   0  0  0  0  0  0
  -49.9726   -7.4903   17.3836 O   0  0  0  0  0  0
  -47.8389   -6.3120   18.3657 O   0  0  0  0  0  0
  -48.4072   -1.6879   17.7884 O   0  0  0  0  0  0
  -49.5696   -0.5600   15.8486 O   0  0  0  0  0  0
  -48.5102    0.8683   17.6930 O   0  0  0  0  0  0
  -44.5287   -0.5282   18.7917 O   0  0  0  0  0  0
  -45.7557    1.2127   18.0702 O   0  0  0  0  0  0
  -53.0075   -6.2185   16.9407 N   0  0  0  0  0  0
  -52.7879   -7.5661   16.9986 N   0  0  0  0  0  0
  -47.0018   -0.3065   16.1488 N   0  0  0  0  0  0
  -51.1534   -6.1915   20.3528 N   0  0  0  0  0  0
  -54.9295   -7.9681   16.0055 N   0  0  0  0  0  0
  -56.3217   -6.2106   15.4234 N   0  0  0  0  0  0
  -50.8971   -5.2450   17.9347 C   0  0  0  0  0  0
  -49.9123   -6.0847   17.0956 C   0  0  0  0  0  0
  -48.5269   -5.4956   17.4063 C   0  0  0  0  0  0
  -48.8279   -4.1106   18.0095 C   0  0  0  0  0  0
  -52.2814   -5.1326   17.3073 C   0  0  0  0  0  0
  -48.1665   -2.9792   17.2042 C   0  0  0  0  0  0
  -51.0418   -5.7784   19.3004 C   0  0  0  0  0  0
  -52.9503   -3.9922   17.0387 C   0  0  0  0  0  0
  -54.1624   -5.7185   16.4284 C   0  0  0  0  0  0
  -54.1720   -4.3613   16.4685 C   0  0  0  0  0  0
  -55.1310   -6.6437   15.9560 C   0  0  0  0  0  0
  -45.9155   -0.9225   16.9199 C   0  0  0  0  0  0
  -53.7295   -8.3577   16.5430 C   0  0  0  0  0  0
  -43.0611   -0.5021   20.7931 C   0  0  0  0  0  0
  -44.0220    0.2815   19.8704 C   0  0  0  0  0  0
  -42.4017    0.4735   21.7948 C   0  0  0  0  0  0
  -43.8361   -1.5996   21.5606 C   0  0  0  0  0  0
  -45.4115    0.0504   17.9599 C   0  0  0  0  0  0
  -44.7670   -1.2703   15.9594 C   0  0  0  0  0  0
  -49.7058   -1.6722   15.0646 C   0  0  0  0  0  0
  -41.5031    1.5051   21.0891 C   0  0  0  0  0  0
  -44.9440   -0.9960   22.4444 C   0  0  0  0  0  0
  -50.8593   -2.4354   15.0876 C   0  0  0  0  0  0
  -48.6707   -2.0376   14.2266 C   0  0  0  0  0  0
  -50.9717   -3.5474   14.2866 C   0  0  0  0  0  0
  -48.7836   -3.1509   13.4270 C   0  0  0  0  0  0
  -49.9330   -3.9063   13.4570 C   0  0  0  0  0  0
  -50.8986   -7.8555   17.2350 H   0  0  0  0  0  0
  -48.4046   -6.4743   19.1808 H   0  0  0  0  0  0
  -46.7695    0.6722   15.9441 H   0  0  0  0  0  0
  -56.9097   -6.7978   15.1345 H   0  0  0  0  0  0
  -56.5001   -5.3499   15.3689 H   0  0  0  0  0  0
  1  5  1  0  0  0
  1  6  1  0  0  0
  1  7  2  0  0  0
  1 12  1  0  0  0
  2 16  1  0  0  0
  2 19  1  0  0  0
  3 17  1  0  0  0
  3 43  1  0  0  0
  4 18  1  0  0  0
  4 44  1  0  0  0
  5 21  1  0  0  0
  6 35  1  0  0  0
  8 30  1  0  0  0
  8 33  1  0  0  0
  9 33  2  0  0  0
 10 11  1  0  0  0
 10 20  1  0  0  0
 10 24  1  0  0  0
 11 28  2  0  0  0
 12 27  1  0  0  0
 12 45  1  0  0  0
 13 22  3  0  0  0
 14 26  2  0  0  0
 14 28  1  0  0  0
 15 26  1  0  0  0
 15 46  1  0  0  0
 15 47  1  0  0  0
 16 17  1  0  0  0
 16 20  1  0  0  0
 16 22  1  0  0  0
 17 18  1  0  0  0
 18 19  1  0  0  0
 19 21  1  0  0  0
 20 23  2  0  0  0
 23 25  1  0  0  0
 24 25  2  0  0  0
 24 26  1  0  0  0
 27 33  1  0  0  0
 27 34  1  0  0  0
 29 30  1  0  0  0
 29 31  1  0  0  0
 29 32  1  0  0  0
 31 36  1  0  0  0
 32 37  1  0  0  0
 35 38  2  0  0  0
 35 39  1  0  0  0
 38 40  1  0  0  0
 39 41  2  0  0  0
 40 42  2  0  0  0
 41 42  1  0  0  0
M  END
>  <CHROM.0>
55.63589269,-176.10818160,-59.35576453

>  <CHROM.1>
66.24913974,-56.15920007,-30.60483607,57.91033008,-52.42928523,-156.19672303
125.36098815,177.70000227,1.92018266,-81.19300856,170.32393586,62.71193224
172.54290045,171.80447404,-64.61023316,-60.52872966,-49.00224057,-3.11877958
17.44348954,0.17759514,-0.64460228,-0.82113865

>  <HEADER>
                                                                          

>  <MASTER>
        0    0    0    0    0    0    0    0   77    0   77    0          

>  <Name>
Remdesivir.pdb

>  <RI>
-9.4624e+08

>  <Rbt.Current_Directory>
/root/miniconda3/envs/rdock/share/rxdock-2013.1.1_148c5bd1-0/data/ligands/prepped_ligands/Remdesivir

>  <Rbt.Executable>
rbdock/0.1.0

>  <Rbt.Library>
librxdock.so/0.1.0

>  <Rbt.Parameter_File>
/root/miniconda3/envs/rdock/share/rxdock-2013.1.1_148c5bd1-0/data/scripts/dock.prm

>  <Rbt.Receptor>
def.prm

>  <SCORE>
-29.168

>  <SCORE.INTER>
-9.30166

>  <SCORE.INTER.CONST>
1

>  <SCORE.INTER.POLAR>
-0.0731642

>  <SCORE.INTER.REPUL>
0

>  <SCORE.INTER.ROT>
14

>  <SCORE.INTER.VDW>
-28.4529

>  <SCORE.INTER.norm>
-0.221468

>  <SCORE.INTRA>
-18.8521

>  <SCORE.INTRA.DIHEDRAL>
-23.5686

>  <SCORE.INTRA.DIHEDRAL.0>
33.3194

>  <SCORE.INTRA.POLAR>
-1

>  <SCORE.INTRA.POLAR.0>
0

>  <SCORE.INTRA.REPUL>
-0.188091

>  <SCORE.INTRA.REPUL.0>
0.188091

>  <SCORE.INTRA.VDW>
-2.72734

>  <SCORE.INTRA.VDW.0>
-0.0599272

>  <SCORE.INTRA.norm>
-0.448859

>  <SCORE.RESTR>
0

>  <SCORE.RESTR.CAVITY>
0

>  <SCORE.RESTR.norm>
0

>  <SCORE.SYSTEM>
-1.01423

>  <SCORE.SYSTEM.CONST>
0

>  <SCORE.SYSTEM.DIHEDRAL>
0.125169

>  <SCORE.SYSTEM.POLAR>
-0.00241715

>  <SCORE.SYSTEM.VDW>
-1.06859

>  <SCORE.SYSTEM.norm>
-0.0241482

>  <SCORE.heavy>
42

>  <SCORE.norm>
-0.694475

>  <TITLE>
    121304016_D                                                           

$$$$
Remdesivir.pdb
  RxDock  02242101333D
librxdock.so/0.1.0
 47 50  0  0  0  0  0  0  0  0999 V2000
  -51.9020   -3.3407   15.4272 P   0  0  0  0  0  0
  -47.6743   -0.6145   16.1348 O   0  0  0  0  0  0
  -45.3798   -2.9722   17.5997 O   0  0  0  0  0  0
  -46.8223   -3.8549   15.5882 O   0  0  0  0  0  0
  -50.3045   -3.1686   15.5293 O   0  0  0  0  0  0
  -52.4192   -2.8551   16.8768 O   0  0  0  0  0  0
  -52.4586   -2.4499   14.3473 O   0  0  0  0  0  0
  -52.1396   -6.4708   17.1338 O   0  0  0  0  0  0
  -54.1540   -7.3413   16.6427 O   0  0  0  0  0  0
  -44.9966    0.3007   18.5519 N   0  0  0  0  0  0
  -43.8454   -0.4356   18.5456 N   0  0  0  0  0  0
  -52.2648   -4.7714   15.1300 N   0  0  0  0  0  0
  -44.5040   -0.8055   15.0628 N   0  0  0  0  0  0
  -42.9157    0.9846   20.2347 N   0  0  0  0  0  0
  -44.1236    2.7662   21.0907 N   0  0  0  0  0  0
  -46.4317   -0.8540   16.8208 C   0  0  0  0  0  0
  -46.6151   -2.2606   17.4265 C   0  0  0  0  0  0
  -47.5632   -2.9866   16.4587 C   0  0  0  0  0  0
  -48.2176   -1.8546   15.6445 C   0  0  0  0  0  0
  -46.1643    0.2230   17.8653 C   0  0  0  0  0  0
  -49.7499   -1.8657   15.7772 C   0  0  0  0  0  0
  -45.3439   -0.8260   15.8274 C   0  0  0  0  0  0
  -47.0099    1.2054   18.2394 C   0  0  0  0  0  0
  -45.1386    1.3715   19.3762 C   0  0  0  0  0  0
  -46.3540    1.9563   19.2190 C   0  0  0  0  0  0
  -44.0508    1.6977   20.2292 C   0  0  0  0  0  0
  -53.5376   -5.1691   15.7433 C   0  0  0  0  0  0
  -42.8846   -0.0726   19.3616 C   0  0  0  0  0  0
  -50.4032   -7.5890   18.5102 C   0  0  0  0  0  0
  -51.8134   -7.6583   17.8816 C   0  0  0  0  0  0
  -50.2094   -8.7859   19.4695 C   0  0  0  0  0  0
  -49.3238   -7.6232   17.4021 C   0  0  0  0  0  0
  -53.3459   -6.4367   16.5424 C   0  0  0  0  0  0
  -54.5610   -5.4295   14.6265 C   0  0  0  0  0  0
  -52.0552   -3.4965   18.0285 C   0  0  0  0  0  0
  -49.0047   -8.5851   20.4063 C   0  0  0  0  0  0
  -49.0350   -6.2141   16.8507 C   0  0  0  0  0  0
  -52.9930   -3.8716   18.9737 C   0  0  0  0  0  0
  -50.7221   -3.7814   18.2495 C   0  0  0  0  0  0
  -52.6005   -4.5185   20.1219 C   0  0  0  0  0  0
  -50.3305   -4.4271   19.3990 C   0  0  0  0  0  0
  -51.2687   -4.7952   20.3354 C   0  0  0  0  0  0
  -44.9201   -3.1282   16.7181 H   0  0  0  0  0  0
  -46.2411   -3.3311   14.9569 H   0  0  0  0  0  0
  -51.5148   -5.3925   15.4549 H   0  0  0  0  0  0
  -43.4406    2.9530   21.6128 H   0  0  0  0  0  0
  -44.8488    3.2648   21.1240 H   0  0  0  0  0  0
  1  5  1  0  0  0
  1  6  1  0  0  0
  1  7  2  0  0  0
  1 12  1  0  0  0
  2 16  1  0  0  0
  2 19  1  0  0  0
  3 17  1  0  0  0
  3 43  1  0  0  0
  4 18  1  0  0  0
  4 44  1  0  0  0
  5 21  1  0  0  0
  6 35  1  0  0  0
  8 30  1  0  0  0
  8 33  1  0  0  0
  9 33  2  0  0  0
 10 11  1  0  0  0
 10 20  1  0  0  0
 10 24  1  0  0  0
 11 28  2  0  0  0
 12 27  1  0  0  0
 12 45  1  0  0  0
 13 22  3  0  0  0
 14 26  2  0  0  0
 14 28  1  0  0  0
 15 26  1  0  0  0
 15 46  1  0  0  0
 15 47  1  0  0  0
 16 17  1  0  0  0
 16 20  1  0  0  0
 16 22  1  0  0  0
 17 18  1  0  0  0
 18 19  1  0  0  0
 19 21  1  0  0  0
 20 23  2  0  0  0
 23 25  1  0  0  0
 24 25  2  0  0  0
 24 26  1  0  0  0
 27 33  1  0  0  0
 27 34  1  0  0  0
 29 30  1  0  0  0
 29 31  1  0  0  0
 29 32  1  0  0  0
 31 36  1  0  0  0
 32 37  1  0  0  0
 35 38  2  0  0  0
 35 39  1  0  0  0
 38 40  1  0  0  0
 39 41  2  0  0  0
 40 42  2  0  0  0
 41 42  1  0  0  0
M  END
>  <CHROM.0>
62.05977514,-174.01047625,10.36395031

>  <CHROM.1>
-60.61835372,-61.91572425,147.34412871,-61.98911823,-67.47331855,-171.88317952
-130.80182467,179.72200624,1.56142830,-127.79319712,-173.16090723,-169.37246976
35.53065945,171.25306947,-164.59241608,86.07011843,-49.00305334,-3.11481977
17.47263424,2.68237812,0.57445754,2.55162807

>  <HEADER>
                                                                          

>  <MASTER>
        0    0    0    0    0    0    0    0   77    0   77    0          

>  <Name>
Remdesivir.pdb

>  <RI>
-9.4624e+08

>  <Rbt.Current_Directory>
/root/miniconda3/envs/rdock/share/rxdock-2013.1.1_148c5bd1-0/data/ligands/prepped_ligands/Remdesivir

>  <Rbt.Executable>
rbdock/0.1.0

>  <Rbt.Library>
librxdock.so/0.1.0

>  <Rbt.Parameter_File>
/root/miniconda3/envs/rdock/share/rxdock-2013.1.1_148c5bd1-0/data/scripts/dock.prm

>  <Rbt.Receptor>
def.prm

>  <SCORE>
-25.6419

>  <SCORE.INTER>
-8.12863

>  <SCORE.INTER.CONST>
1

>  <SCORE.INTER.POLAR>
-0.25798

>  <SCORE.INTER.REPUL>
0.0630541

>  <SCORE.INTER.ROT>
14

>  <SCORE.INTER.VDW>
-26.9668

>  <SCORE.INTER.norm>
-0.193539

>  <SCORE.INTRA>
-18.77

>  <SCORE.INTRA.DIHEDRAL>
-20.0387

>  <SCORE.INTRA.DIHEDRAL.0>
33.3194

>  <SCORE.INTRA.POLAR>
-0.207083

>  <SCORE.INTRA.POLAR.0>
0

>  <SCORE.INTRA.REPUL>
-0.188091

>  <SCORE.INTRA.REPUL.0>
0.188091

>  <SCORE.INTRA.VDW>
-7.10612

>  <SCORE.INTRA.VDW.0>
-0.0599272

>  <SCORE.INTRA.norm>
-0.446905

>  <SCORE.RESTR>
0

>  <SCORE.RESTR.CAVITY>
0

>  <SCORE.RESTR.norm>
0

>  <SCORE.SYSTEM>
1.25677

>  <SCORE.SYSTEM.CONST>
0

>  <SCORE.SYSTEM.DIHEDRAL>
3.53398

>  <SCORE.SYSTEM.VDW>
-0.510217

>  <SCORE.SYSTEM.norm>
0.0299231

>  <SCORE.heavy>
42

>  <SCORE.norm>
-0.610521

>  <TITLE>
    121304016_D                                                           

$$$$
Remdesivir.pdb
  RxDock  02242101333D
librxdock.so/0.1.0
 47 50  0  0  0  0  0  0  0  0999 V2000
  -49.7936    0.0152   17.2943 P   0  0  0  0  0  0
  -51.4771   -3.0325   17.5172 O   0  0  0  0  0  0
  -52.4527   -5.1949   20.2268 O   0  0  0  0  0  0
  -54.1862   -3.3433   19.5395 O   0  0  0  0  0  0
  -51.3495   -0.3454   17.0910 O   0  0  0  0  0  0
  -49.2281    0.0756   15.7839 O   0  0  0  0  0  0
  -49.6481    1.3579   17.9619 O   0  0  0  0  0  0
  -45.6433   -0.6126   19.1218 O   0  0  0  0  0  0
  -46.5895   -2.0011   17.6273 O   0  0  0  0  0  0
  -49.6758   -6.1417   18.4931 N   0  0  0  0  0  0
  -50.3930   -7.1448   19.0821 N   0  0  0  0  0  0
  -49.1093   -1.0340   18.1297 N   0  0  0  0  0  0
  -53.0397   -5.9352   16.9095 N   0  0  0  0  0  0
  -48.4250   -8.5054   19.1848 N   0  0  0  0  0  0
  -46.3963   -7.7287   18.3806 N   0  0  0  0  0  0
  -51.3991   -4.3255   18.1450 C   0  0  0  0  0  0
  -51.8506   -4.0546   19.5947 C   0  0  0  0  0  0
  -52.8302   -2.8748   19.4891 C   0  0  0  0  0  0
  -52.5353   -2.2563   18.1096 C   0  0  0  0  0  0
  -49.9905   -4.8990   18.0485 C   0  0  0  0  0  0
  -52.1266   -0.7775   18.2205 C   0  0  0  0  0  0
  -52.3254   -5.2337   17.4465 C   0  0  0  0  0  0
  -48.9069   -4.2826   17.5329 C   0  0  0  0  0  0
  -48.3488   -6.2857   18.2387 C   0  0  0  0  0  0
  -47.8365   -5.1738   17.6513 C   0  0  0  0  0  0
  -47.7348   -7.5126   18.6058 C   0  0  0  0  0  0
  -47.9937   -0.4908   18.9137 C   0  0  0  0  0  0
  -49.7562   -8.2490   19.3922 C   0  0  0  0  0  0
  -43.2172   -0.5136   19.6354 C   0  0  0  0  0  0
  -44.3594   -1.2135   18.8647 C   0  0  0  0  0  0
  -42.9847    0.8947   19.0413 C   0  0  0  0  0  0
  -43.5791   -0.3983   21.1353 C   0  0  0  0  0  0
  -46.6991   -1.1331   18.4735 C   0  0  0  0  0  0
  -48.2340   -0.8112   20.3976 C   0  0  0  0  0  0
  -49.3687   -0.9710   14.9150 C   0  0  0  0  0  0
  -41.7464    1.5793   19.6474 C   0  0  0  0  0  0
  -43.5240   -1.7685   21.8371 C   0  0  0  0  0  0
  -50.6148   -1.3915   14.4863 C   0  0  0  0  0  0
  -48.2406   -1.6182   14.4504 C   0  0  0  0  0  0
  -50.7280   -2.4447   13.6094 C   0  0  0  0  0  0
  -48.3551   -2.6725   13.5747 C   0  0  0  0  0  0
  -49.5979   -3.0864   13.1544 C   0  0  0  0  0  0
  -53.2163   -5.5563   19.6800 H   0  0  0  0  0  0
  -54.4556   -3.5838   20.4777 H   0  0  0  0  0  0
  -48.7710   -1.7909   17.5243 H   0  0  0  0  0  0
  -46.0323   -8.4943   18.6156 H   0  0  0  0  0  0
  -45.9005   -7.1063   18.0032 H   0  0  0  0  0  0
  1  5  1  0  0  0
  1  6  1  0  0  0
  1  7  2  0  0  0
  1 12  1  0  0  0
  2 16  1  0  0  0
  2 19  1  0  0  0
  3 17  1  0  0  0
  3 43  1  0  0  0
  4 18  1  0  0  0
  4 44  1  0  0  0
  5 21  1  0  0  0
  6 35  1  0  0  0
  8 30  1  0  0  0
  8 33  1  0  0  0
  9 33  2  0  0  0
 10 11  1  0  0  0
 10 20  1  0  0  0
 10 24  1  0  0  0
 11 28  2  0  0  0
 12 27  1  0  0  0
 12 45  1  0  0  0
 13 22  3  0  0  0
 14 26  2  0  0  0
 14 28  1  0  0  0
 15 26  1  0  0  0
 15 46  1  0  0  0
 15 47  1  0  0  0
 16 17  1  0  0  0
 16 20  1  0  0  0
 16 22  1  0  0  0
 17 18  1  0  0  0
 18 19  1  0  0  0
 19 21  1  0  0  0
 20 23  2  0  0  0
 23 25  1  0  0  0
 24 25  2  0  0  0
 24 26  1  0  0  0
 27 33  1  0  0  0
 27 34  1  0  0  0
 29 30  1  0  0  0
 29 31  1  0  0  0
 29 32  1  0  0  0
 31 36  1  0  0  0
 32 37  1  0  0  0
 35 38  2  0  0  0
 35 39  1  0  0  0
 38 40  1  0  0  0
 39 41  2  0  0  0
 40 42  2  0  0  0
 41 42  1  0  0  0
M  END
>  <CHROM.0>
-54.26961172,-79.17724017,-177.51506193

>  <CHROM.1>
166.18525603,-55.10136896,-150.15277043,-54.50762878,76.48370176,-111.56301933
64.28937363,178.59021018,-5.59671553,-116.97794979,-175.93384434,37.14928608
176.86364764,-69.61664663,-172.93837594,71.60711718,-48.88173006,-2.74936757
18.01018542,0.50283698,-0.36764451,-0.32145713

>  <HEADER>
                                                                          

>  <MASTER>
        0    0    0    0    0    0    0    0   77    0   77    0          

>  <Name>
Remdesivir.pdb

>  <RI>
-9.4624e+08

>  <Rbt.Current_Directory>
/root/miniconda3/envs/rdock/share/rxdock-2013.1.1_148c5bd1-0/data/ligands/prepped_ligands/Remdesivir

>  <Rbt.Executable>
rbdock/0.1.0

>  <Rbt.Library>
librxdock.so/0.1.0

>  <Rbt.Parameter_File>
/root/miniconda3/envs/rdock/share/rxdock-2013.1.1_148c5bd1-0/data/scripts/dock.prm

>  <Rbt.Receptor>
def.prm

>  <SCORE>
-18.801

>  <SCORE.INTER>
-5.89648

>  <SCORE.INTER.CONST>
1

>  <SCORE.INTER.POLAR>
-1.00121

>  <SCORE.INTER.REPUL>
0.325339

>  <SCORE.INTER.ROT>
14

>  <SCORE.INTER.VDW>
-23.5191

>  <SCORE.INTER.norm>
-0.140392

>  <SCORE.INTRA>
-12.586

>  <SCORE.INTRA.DIHEDRAL>
-12.7842

>  <SCORE.INTRA.DIHEDRAL.0>
33.3194

>  <SCORE.INTRA.POLAR>
0

>  <SCORE.INTRA.POLAR.0>
0

>  <SCORE.INTRA.REPUL>
-0.18725

>  <SCORE.INTRA.REPUL.0>
0.188091

>  <SCORE.INTRA.VDW>
-5.25763

>  <SCORE.INTRA.VDW.0>
-0.0599272

>  <SCORE.INTRA.norm>
-0.299666

>  <SCORE.RESTR>
0.00371494

>  <SCORE.RESTR.CAVITY>
0.00371494

>  <SCORE.RESTR.norm>
8.84509e-05

>  <SCORE.SYSTEM>
-0.322234

>  <SCORE.SYSTEM.CONST>
0

>  <SCORE.SYSTEM.DIHEDRAL>
1.75704

>  <SCORE.SYSTEM.POLAR>
-0.00764416

>  <SCORE.SYSTEM.VDW>
-1.17476

>  <SCORE.SYSTEM.norm>
-0.00767224

>  <SCORE.heavy>
42

>  <SCORE.norm>
-0.447642

>  <TITLE>
    121304016_D                                                           

$$$$
Remdesivir.pdb
  RxDock  02242101333D
librxdock.so/0.1.0
 47 50  0  0  0  0  0  0  0  0999 V2000
  -50.7573   -0.1717   18.0002 P   0  0  0  0  0  0
  -50.7807   -4.2479   18.0086 O   0  0  0  0  0  0
  -51.2822   -6.1175   14.9717 O   0  0  0  0  0  0
  -51.1024   -3.5088   14.7108 O   0  0  0  0  0  0
  -52.0973   -0.9241   17.5203 O   0  0  0  0  0  0
  -50.2494    0.5690   16.6593 O   0  0  0  0  0  0
  -51.0771    0.8410   19.0686 O   0  0  0  0  0  0
  -46.2970   -0.4317   19.3599 O   0  0  0  0  0  0
  -47.1895   -1.9778   17.9925 O   0  0  0  0  0  0
  -51.5219   -6.6766   19.2874 N   0  0  0  0  0  0
  -52.3107   -5.7311   19.8801 N   0  0  0  0  0  0
  -49.7545   -1.1600   18.5337 N   0  0  0  0  0  0
  -48.1662   -5.4611   16.2971 N   0  0  0  0  0  0
  -52.9001   -7.2874   21.6020 N   0  0  0  0  0  0
  -52.0482   -9.4415   21.6036 N   0  0  0  0  0  0
  -50.5862   -5.4698   17.2731 C   0  0  0  0  0  0
  -51.6501   -5.3976   16.1587 C   0  0  0  0  0  0
  -51.8330   -3.8963   15.8841 C   0  0  0  0  0  0
  -51.2412   -3.2062   17.1276 C   0  0  0  0  0  0
  -50.7412   -6.6864   18.1778 C   0  0  0  0  0  0
  -52.2762   -2.3153   17.8352 C   0  0  0  0  0  0
  -49.2195   -5.4641   16.7228 C   0  0  0  0  0  0
  -50.1521   -7.8888   18.0132 C   0  0  0  0  0  0
  -51.4017   -7.9215   19.8186 C   0  0  0  0  0  0
  -50.5742   -8.6975   19.0723 C   0  0  0  0  0  0
  -52.1229   -8.2047   21.0088 C   0  0  0  0  0  0
  -48.6562   -0.5118   19.2602 C   0  0  0  0  0  0
  -52.9462   -6.0674   20.9774 C   0  0  0  0  0  0
  -43.8665   -0.3567   19.8569 C   0  0  0  0  0  0
  -44.9827   -0.7515   18.8635 C   0  0  0  0  0  0
  -43.4250   -1.6047   20.6555 C   0  0  0  0  0  0
  -42.6574    0.2332   19.0926 C   0  0  0  0  0  0
  -47.3334   -1.0729   18.7936 C   0  0  0  0  0  0
  -48.8224   -0.7996   20.7609 C   0  0  0  0  0  0
  -49.6185   -0.1075   15.6521 C   0  0  0  0  0  0
  -43.0453   -1.2568   22.1061 C   0  0  0  0  0  0
  -42.9584    1.6486   18.5644 C   0  0  0  0  0  0
  -48.3622   -0.6589   15.8286 C   0  0  0  0  0  0
  -50.2530   -0.2487   14.4336 C   0  0  0  0  0  0
  -47.7514   -1.3373   14.8002 C   0  0  0  0  0  0
  -49.6405   -0.9261   13.4052 C   0  0  0  0  0  0
  -48.3900   -1.4698   13.5876 C   0  0  0  0  0  0
  -52.0193   -6.0959   14.2868 H   0  0  0  0  0  0
  -51.3259   -2.5683   14.4346 H   0  0  0  0  0  0
  -49.3759   -1.7193   17.7606 H   0  0  0  0  0  0
  -52.5009   -9.5991   22.3413 H   0  0  0  0  0  0
  -51.5505  -10.0772   21.2517 H   0  0  0  0  0  0
  1  5  1  0  0  0
  1  6  1  0  0  0
  1  7  2  0  0  0
  1 12  1  0  0  0
  2 16  1  0  0  0
  2 19  1  0  0  0
  3 17  1  0  0  0
  3 43  1  0  0  0
  4 18  1  0  0  0
  4 44  1  0  0  0
  5 21  1  0  0  0
  6 35  1  0  0  0
  8 30  1  0  0  0
  8 33  1  0  0  0
  9 33  2  0  0  0
 10 11  1  0  0  0
 10 20  1  0  0  0
 10 24  1  0  0  0
 11 28  2  0  0  0
 12 27  1  0  0  0
 12 45  1  0  0  0
 13 22  3  0  0  0
 14 26  2  0  0  0
 14 28  1  0  0  0
 15 26  1  0  0  0
 15 46  1  0  0  0
 15 47  1  0  0  0
 16 17  1  0  0  0
 16 20  1  0  0  0
 16 22  1  0  0  0
 17 18  1  0  0  0
 18 19  1  0  0  0
 19 21  1  0  0  0
 20 23  2  0  0  0
 23 25  1  0  0  0
 24 25  2  0  0  0
 24 26  1  0  0  0
 27 33  1  0  0  0
 27 34  1  0  0  0
 29 30  1  0  0  0
 29 31  1  0  0  0
 29 32  1  0  0  0
 31 36  1  0  0  0
 32 37  1  0  0  0
 35 38  2  0  0  0
 35 39  1  0  0  0
 38 40  1  0  0  0
 39 41  2  0  0  0
 40 42  2  0  0  0
 41 42  1  0  0  0
M  END
>  <CHROM.0>
64.90236238,-59.50243170,174.28020585

>  <CHROM.1>
130.69425538,-76.83193974,-166.83513048,176.62851597,171.02541349,-65.35650365
-67.23283281,-160.52717285,7.08463371,-132.55396990,27.72333308,139.74528955
175.17349869,98.92039892,-145.09442638,73.14782059,-49.36087928,-2.99792298
18.04335953,0.64937669,-0.60124749,-0.71046368

>  <HEADER>
                                                                          

>  <MASTER>
        0    0    0    0    0    0    0    0   77    0   77    0          

>  <Name>
Remdesivir.pdb

>  <RI>
-9.4624e+08

>  <Rbt.Current_Directory>
/root/miniconda3/envs/rdock/share/rxdock-2013.1.1_148c5bd1-0/data/ligands/prepped_ligands/Remdesivir

>  <Rbt.Executable>
rbdock/0.1.0

>  <Rbt.Library>
librxdock.so/0.1.0

>  <Rbt.Parameter_File>
/root/miniconda3/envs/rdock/share/rxdock-2013.1.1_148c5bd1-0/data/scripts/dock.prm

>  <Rbt.Receptor>
def.prm

>  <SCORE>
-17.8886

>  <SCORE.INTER>
-7.91193

>  <SCORE.INTER.CONST>
1

>  <SCORE.INTER.POLAR>
-0.820911

>  <SCORE.INTER.REPUL>
0

>  <SCORE.INTER.ROT>
14

>  <SCORE.INTER.VDW>
-24.5208

>  <SCORE.INTER.norm>
-0.188379

>  <SCORE.INTRA>
-9.38391

>  <SCORE.INTRA.DIHEDRAL>
-7.10774

>  <SCORE.INTRA.DIHEDRAL.0>
33.3194

>  <SCORE.INTRA.POLAR>
0

>  <SCORE.INTRA.POLAR.0>
0

>  <SCORE.INTRA.REPUL>
-0.185542

>  <SCORE.INTRA.REPUL.0>
0.188091

>  <SCORE.INTRA.VDW>
-4.90233

>  <SCORE.INTRA.VDW.0>
-0.0599272

>  <SCORE.INTRA.norm>
-0.223426

>  <SCORE.RESTR>
0.399632

>  <SCORE.RESTR.CAVITY>
0.399632

>  <SCORE.RESTR.norm>
0.00951504

>  <SCORE.SYSTEM>
-0.992416

>  <SCORE.SYSTEM.CONST>
0

>  <SCORE.SYSTEM.DIHEDRAL>
0.141523

>  <SCORE.SYSTEM.VDW>
-1.06318

>  <SCORE.SYSTEM.norm>
-0.023629

>  <SCORE.heavy>
42

>  <SCORE.norm>
-0.42592

>  <TITLE>
    121304016_D                                                           

$$$$
Remdesivir.pdb
  RxDock  02242101333D
librxdock.so/0.1.0
 47 50  0  0  0  0  0  0  0  0999 V2000
  -47.7032    0.0288   17.2176 P   0  0  0  0  0  0
  -50.2138   -2.9578   18.1474 O   0  0  0  0  0  0
  -53.5327   -3.0780   19.5404 O   0  0  0  0  0  0
  -52.6707   -0.7080   18.8015 O   0  0  0  0  0  0
  -47.9924   -1.1053   18.3232 O   0  0  0  0  0  0
  -49.0616    0.0500   16.3464 O   0  0  0  0  0  0
  -47.4847    1.3643   17.8793 O   0  0  0  0  0  0
  -43.3802   -0.8025   17.8145 O   0  0  0  0  0  0
  -43.7300   -0.7971   15.5931 O   0  0  0  0  0  0
  -51.7250   -5.8410   19.6690 N   0  0  0  0  0  0
  -52.6365   -5.4989   20.6279 N   0  0  0  0  0  0
  -46.4917   -0.3255   16.3967 N   0  0  0  0  0  0
  -52.8688   -3.5514   16.1889 N   0  0  0  0  0  0
  -52.5531   -7.7217   21.5147 N   0  0  0  0  0  0
  -51.1858   -9.3326   20.5655 N   0  0  0  0  0  0
  -51.4296   -3.6984   18.3606 C   0  0  0  0  0  0
  -52.1010   -2.9651   19.5398 C   0  0  0  0  0  0
  -51.6420   -1.5039   19.4088 C   0  0  0  0  0  0
  -50.4113   -1.5720   18.4851 C   0  0  0  0  0  0
  -51.1356   -5.1654   18.6506 C   0  0  0  0  0  0
  -49.1559   -0.9939   19.1601 C   0  0  0  0  0  0
  -52.2413   -3.6152   17.1338 C   0  0  0  0  0  0
  -50.2874   -5.9634   17.9696 C   0  0  0  0  0  0
  -51.2142   -7.0985   19.6050 C   0  0  0  0  0  0
  -50.3312   -7.2199   18.5807 C   0  0  0  0  0  0
  -51.6600   -8.0426   20.5678 C   0  0  0  0  0  0
  -45.5869   -1.2456   17.0958 C   0  0  0  0  0  0
  -53.0001   -6.4256   21.4822 C   0  0  0  0  0  0
  -43.0083   -0.9183   20.2656 C   0  0  0  0  0  0
  -43.9564   -1.1922   19.0762 C   0  0  0  0  0  0
  -42.8800    0.6075   20.4791 C   0  0  0  0  0  0
  -43.5580   -1.5844   21.5494 C   0  0  0  0  0  0
  -44.1557   -0.9352   16.7250 C   0  0  0  0  0  0
  -45.9173   -2.6830   16.6632 C   0  0  0  0  0  0
  -49.3040   -0.8647   15.3592 C   0  0  0  0  0  0
  -41.9474    1.2588   19.4419 C   0  0  0  0  0  0
  -44.9755   -1.0826   21.8841 C   0  0  0  0  0  0
  -48.2866   -1.3466   14.5553 C   0  0  0  0  0  0
  -50.5925   -1.3222   15.1649 C   0  0  0  0  0  0
  -48.5570   -2.2687   13.5717 C   0  0  0  0  0  0
  -50.8621   -2.2433   14.1799 C   0  0  0  0  0  0
  -49.8454   -2.7163   13.3829 C   0  0  0  0  0  0
  -53.9324   -2.6760   18.7088 H   0  0  0  0  0  0
  -52.9038   -1.0488   17.8848 H   0  0  0  0  0  0
  -45.9857    0.5303   16.1409 H   0  0  0  0  0  0
  -51.4721   -9.9039   21.1701 H   0  0  0  0  0  0
  -50.5973   -9.5913   19.9634 H   0  0  0  0  0  0
  1  5  1  0  0  0
  1  6  1  0  0  0
  1  7  2  0  0  0
  1 12  1  0  0  0
  2 16  1  0  0  0
  2 19  1  0  0  0
  3 17  1  0  0  0
  3 43  1  0  0  0
  4 18  1  0  0  0
  4 44  1  0  0  0
  5 21  1  0  0  0
  6 35  1  0  0  0
  8 30  1  0  0  0
  8 33  1  0  0  0
  9 33  2  0  0  0
 10 11  1  0  0  0
 10 20  1  0  0  0
 10 24  1  0  0  0
 11 28  2  0  0  0
 12 27  1  0  0  0
 12 45  1  0  0  0
 13 22  3  0  0  0
 14 26  2  0  0  0
 14 28  1  0  0  0
 15 26  1  0  0  0
 15 46  1  0  0  0
 15 47  1  0  0  0
 16 17  1  0  0  0
 16 20  1  0  0  0
 16 22  1  0  0  0
 17 18  1  0  0  0
 18 19  1  0  0  0
 19 21  1  0  0  0
 20 23  2  0  0  0
 23 25  1  0  0  0
 24 25  2  0  0  0
 24 26  1  0  0  0
 27 33  1  0  0  0
 27 34  1  0  0  0
 29 30  1  0  0  0
 29 31  1  0  0  0
 29 32  1  0  0  0
 31 36  1  0  0  0
 32 37  1  0  0  0
 35 38  2  0  0  0
 35 39  1  0  0  0
 38 40  1  0  0  0
 39 41  2  0  0  0
 40 42  2  0  0  0
 41 42  1  0  0  0
M  END
>  <CHROM.0>
-176.45552280,64.66275471,179.15504725

>  <CHROM.1>
-55.52043182,-81.04206636,-23.28020253,-61.07404718,-59.66468304,84.70654797
-35.77433422,-176.58338133,-170.69952523,-145.70840364,133.40878284,58.37376369
129.40972150,69.48897007,-77.02164312,-57.76053430,-48.74667207,-2.53725249
18.16385013,0.47691827,-0.42845987,-0.90423994

>  <HEADER>
                                                                          

>  <MASTER>
        0    0    0    0    0    0    0    0   77    0   77    0          

>  <Name>
Remdesivir.pdb

>  <RI>
-9.4624e+08

>  <Rbt.Current_Directory>
/root/miniconda3/envs/rdock/share/rxdock-2013.1.1_148c5bd1-0/data/ligands/prepped_ligands/Remdesivir

>  <Rbt.Executable>
rbdock/0.1.0

>  <Rbt.Library>
librxdock.so/0.1.0

>  <Rbt.Parameter_File>
/root/miniconda3/envs/rdock/share/rxdock-2013.1.1_148c5bd1-0/data/scripts/dock.prm

>  <Rbt.Receptor>
def.prm

>  <SCORE>
-18.9058

>  <SCORE.INTER>
-10.7182

>  <SCORE.INTER.CONST>
1

>  <SCORE.INTER.POLAR>
-0.748862

>  <SCORE.INTER.REPUL>
0.00783997

>  <SCORE.INTER.ROT>
14

>  <SCORE.INTER.VDW>
-27.6113

>  <SCORE.INTER.norm>
-0.255196

>  <SCORE.INTRA>
-7.17243

>  <SCORE.INTRA.DIHEDRAL>
-19.5247

>  <SCORE.INTRA.DIHEDRAL.0>
33.3194

>  <SCORE.INTRA.POLAR>
0

>  <SCORE.INTRA.POLAR.0>
0

>  <SCORE.INTRA.REPUL>
-0.188091

>  <SCORE.INTRA.REPUL.0>
0.188091

>  <SCORE.INTRA.VDW>
3.5304

>  <SCORE.INTRA.VDW.0>
-0.0599272

>  <SCORE.INTRA.norm>
-0.170772

>  <SCORE.RESTR>
0

>  <SCORE.RESTR.CAVITY>
0

>  <SCORE.RESTR.norm>
0

>  <SCORE.SYSTEM>
-1.01514

>  <SCORE.SYSTEM.CONST>
0

>  <SCORE.SYSTEM.DIHEDRAL>
0.137712

>  <SCORE.SYSTEM.VDW>
-1.08399

>  <SCORE.SYSTEM.norm>
-0.0241699

>  <SCORE.heavy>
42

>  <SCORE.norm>
-0.450138

>  <TITLE>
    121304016_D                                                           

$$$$
Remdesivir.pdb
  RxDock  02242101343D
librxdock.so/0.1.0
 47 50  0  0  0  0  0  0  0  0999 V2000
  -50.2266   -5.1197   15.7303 P   0  0  0  0  0  0
  -47.4809   -2.0673   18.7222 O   0  0  0  0  0  0
  -48.8199    1.2350   18.2007 O   0  0  0  0  0  0
  -50.5749   -0.7128   18.3789 O   0  0  0  0  0  0
  -50.0667   -3.8912   16.7586 O   0  0  0  0  0  0
  -49.6001   -4.5390   14.3610 O   0  0  0  0  0  0
  -49.4340   -6.3094   16.2055 O   0  0  0  0  0  0
  -51.8937   -6.9611   18.6283 O   0  0  0  0  0  0
  -53.0483   -7.8117   16.8963 O   0  0  0  0  0  0
  -44.9604   -0.4514   19.7075 N   0  0  0  0  0  0
  -44.9809   -1.0845   20.9184 N   0  0  0  0  0  0
  -51.6741   -5.5091   15.5881 N   0  0  0  0  0  0
  -48.1564   -0.0664   21.3254 N   0  0  0  0  0  0
  -42.6459   -0.6364   21.2037 N   0  0  0  0  0  0
  -41.4462    0.5090   19.5867 N   0  0  0  0  0  0
  -47.3517   -0.6463   18.9118 C   0  0  0  0  0  0
  -48.2871   -0.0492   17.8406 C   0  0  0  0  0  0
  -49.3959   -1.0976   17.6560 C   0  0  0  0  0  0
  -48.8051   -2.3874   18.2560 C   0  0  0  0  0  0
  -45.9017   -0.2016   18.7628 C   0  0  0  0  0  0
  -48.7564   -3.5284   17.2256 C   0  0  0  0  0  0
  -47.8059   -0.3199   20.2749 C   0  0  0  0  0  0
  -45.3723    0.4722   17.7208 C   0  0  0  0  0  0
  -43.8143    0.0929   19.2211 C   0  0  0  0  0  0
  -44.0184    0.6681   18.0081 C   0  0  0  0  0  0
  -42.6412   -0.0190   20.0138 C   0  0  0  0  0  0
  -52.3960   -5.4705   16.8654 C   0  0  0  0  0  0
  -43.8574   -1.1479   21.5927 C   0  0  0  0  0  0
  -50.2834   -6.1388   20.3285 C   0  0  0  0  0  0
  -51.0721   -5.8483   19.0316 C   0  0  0  0  0  0
  -51.2505   -6.1116   21.5345 C   0  0  0  0  0  0
  -49.5971   -7.5224   20.2361 C   0  0  0  0  0  0
  -52.5030   -6.8659   17.4343 C   0  0  0  0  0  0
  -53.8093   -4.9208   16.6145 C   0  0  0  0  0  0
  -49.6577   -3.2100   14.0440 C   0  0  0  0  0  0
  -52.3213   -7.2134   21.4403 C   0  0  0  0  0  0
  -48.4852   -7.5318   19.1700 C   0  0  0  0  0  0
  -50.8667   -2.5547   13.8946 C   0  0  0  0  0  0
  -48.4820   -2.5052   13.8756 C   0  0  0  0  0  0
  -50.8964   -1.2167   13.5787 C   0  0  0  0  0  0
  -48.5129   -1.1674   13.5581 C   0  0  0  0  0  0
  -49.7192   -0.5229   13.4090 C   0  0  0  0  0  0
  -48.0866    1.9106   18.3374 H   0  0  0  0  0  0
  -50.8272    0.2411   18.1863 H   0  0  0  0  0  0
  -51.7403   -6.4492   15.1810 H   0  0  0  0  0  0
  -40.7297    0.4314   20.0913 H   0  0  0  0  0  0
  -41.3926    0.9244   18.8120 H   0  0  0  0  0  0
  1  5  1  0  0  0
  1  6  1  0  0  0
  1  7  2  0  0  0
  1 12  1  0  0  0
  2 16  1  0  0  0
  2 19  1  0  0  0
  3 17  1  0  0  0
  3 43  1  0  0  0
  4 18  1  0  0  0
  4 44  1  0  0  0
  5 21  1  0  0  0
  6 35  1  0  0  0
  8 30  1  0  0  0
  8 33  1  0  0  0
  9 33  2  0  0  0
 10 11  1  0  0  0
 10 20  1  0  0  0
 10 24  1  0  0  0
 11 28  2  0  0  0
 12 27  1  0  0  0
 12 45  1  0  0  0
 13 22  3  0  0  0
 14 26  2  0  0  0
 14 28  1  0  0  0
 15 26  1  0  0  0
 15 46  1  0  0  0
 15 47  1  0  0  0
 16 17  1  0  0  0
 16 20  1  0  0  0
 16 22  1  0  0  0
 17 18  1  0  0  0
 18 19  1  0  0  0
 19 21  1  0  0  0
 20 23  2  0  0  0
 23 25  1  0  0  0
 24 25  2  0  0  0
 24 26  1  0  0  0
 27 33  1  0  0  0
 27 34  1  0  0  0
 29 30  1  0  0  0
 29 31  1  0  0  0
 29 32  1  0  0  0
 31 36  1  0  0  0
 32 37  1  0  0  0
 35 38  2  0  0  0
 35 39  1  0  0  0
 38 40  1  0  0  0
 39 41  2  0  0  0
 40 42  2  0  0  0
 41 42  1  0  0  0
M  END
>  <CHROM.0>
-178.81286129,60.81362243,-53.25182622

>  <CHROM.1>
-70.63840133,-30.59157982,-39.91496785,60.50868003,49.20541576,-176.87846263
-60.69806867,-172.76097572,168.35415176,-99.37276925,-73.60656484,178.85234419
118.97019322,-73.26260454,63.05473953,67.25787852,-48.71269098,-3.00939656
17.86675131,2.99622915,0.73095002,2.16189388

>  <HEADER>
                                                                          

>  <MASTER>
        0    0    0    0    0    0    0    0   77    0   77    0          

>  <Name>
Remdesivir.pdb

>  <RI>
-9.4624e+08

>  <Rbt.Current_Directory>
/root/miniconda3/envs/rdock/share/rxdock-2013.1.1_148c5bd1-0/data/ligands/prepped_ligands/Remdesivir

>  <Rbt.Executable>
rbdock/0.1.0

>  <Rbt.Library>
librxdock.so/0.1.0

>  <Rbt.Parameter_File>
/root/miniconda3/envs/rdock/share/rxdock-2013.1.1_148c5bd1-0/data/scripts/dock.prm

>  <Rbt.Receptor>
def.prm

>  <SCORE>
-21.0383

>  <SCORE.INTER>
-11.5511

>  <SCORE.INTER.CONST>
1

>  <SCORE.INTER.POLAR>
-1.22423

>  <SCORE.INTER.REPUL>
0.0237562

>  <SCORE.INTER.ROT>
14

>  <SCORE.INTER.VDW>
-26.9075

>  <SCORE.INTER.norm>
-0.275025

>  <SCORE.INTRA>
-8.57057

>  <SCORE.INTRA.DIHEDRAL>
-20.21

>  <SCORE.INTRA.DIHEDRAL.0>
33.3194

>  <SCORE.INTRA.POLAR>
-0.018399

>  <SCORE.INTRA.POLAR.0>
0

>  <SCORE.INTRA.REPUL>
-0.188091

>  <SCORE.INTRA.REPUL.0>
0.188091

>  <SCORE.INTRA.VDW>
2.53747

>  <SCORE.INTRA.VDW.0>
-0.0599272

>  <SCORE.INTRA.norm>
-0.204061

>  <SCORE.RESTR>
0.00177476

>  <SCORE.RESTR.CAVITY>
0.00177476

>  <SCORE.RESTR.norm>
4.22563e-05

>  <SCORE.SYSTEM>
-0.918395

>  <SCORE.SYSTEM.CONST>
0

>  <SCORE.SYSTEM.DIHEDRAL>
0.111866

>  <SCORE.SYSTEM.POLAR>
-0.0141088

>  <SCORE.SYSTEM.VDW>
-0.926358

>  <SCORE.SYSTEM.norm>
-0.0218666

>  <SCORE.heavy>
42

>  <SCORE.norm>
-0.500911

>  <TITLE>
    121304016_D                                                           

$$$$
