Remdesivir.pdb
  RxDock  02242110003D
librxdock.so/0.1.0
 47 50  0  0  0  0  0  0  0  0999 V2000
  -51.1072   -5.6204   15.7140 P   0  0  0  0  0  0
  -49.2026   -2.3009   17.7472 O   0  0  0  0  0  0
  -49.1519    1.2905   17.4837 O   0  0  0  0  0  0
  -51.5260    0.1704   17.6052 O   0  0  0  0  0  0
  -50.4303   -4.3546   16.4432 O   0  0  0  0  0  0
  -52.6837   -5.4013   15.9817 O   0  0  0  0  0  0
  -50.8183   -5.5918   14.2358 O   0  0  0  0  0  0
  -52.5976   -5.5483   18.4669 O   0  0  0  0  0  0
  -50.4385   -5.5999   19.0933 O   0  0  0  0  0  0
  -46.4592   -1.6719   16.7021 N   0  0  0  0  0  0
  -46.9656   -2.1035   15.5084 N   0  0  0  0  0  0
  -50.5920   -6.9089   16.2983 N   0  0  0  0  0  0
  -49.0175   -0.3882   20.4939 N   0  0  0  0  0  0
  -44.7482   -2.5273   14.7095 N   0  0  0  0  0  0
  -42.9012   -2.1129   16.0446 N   0  0  0  0  0  0
  -48.5272   -1.0594   18.0203 C   0  0  0  0  0  0
  -49.1662   -0.0701   17.0243 C   0  0  0  0  0  0
  -50.5980   -0.5891   16.8160 C   0  0  0  0  0  0
  -50.5513   -2.0467   17.3117 C   0  0  0  0  0  0
  -47.0202   -1.2036   17.8453 C   0  0  0  0  0  0
  -50.9621   -3.0393   16.2109 C   0  0  0  0  0  0
  -48.8043   -0.6815   19.4172 C   0  0  0  0  0  0
  -46.0740   -0.9017   18.7582 C   0  0  0  0  0  0
  -45.1197   -1.6549   16.9295 C   0  0  0  0  0  0
  -44.8374   -1.1906   18.1739 C   0  0  0  0  0  0
  -44.2664   -2.1006   15.8854 C   0  0  0  0  0  0
  -51.2755   -7.2755   17.5443 C   0  0  0  0  0  0
  -46.1143   -2.4996   14.5922 C   0  0  0  0  0  0
  -53.1490   -3.9482   20.2823 C   0  0  0  0  0  0
  -52.7119   -4.1547   18.8143 C   0  0  0  0  0  0
  -52.0491   -4.4866   21.2260 C   0  0  0  0  0  0
  -53.3905   -2.4453   20.5598 C   0  0  0  0  0  0
  -51.3602   -6.0723   18.4539 C   0  0  0  0  0  0
  -50.4642   -8.3777   18.2438 C   0  0  0  0  0  0
  -53.6236   -6.2947   15.5478 C   0  0  0  0  0  0
  -52.5234   -4.5473   22.6892 C   0  0  0  0  0  0
  -52.1074   -1.6187   20.3516 C   0  0  0  0  0  0
  -54.3879   -6.0493   14.4213 C   0  0  0  0  0  0
  -53.8092   -7.4713   16.2468 C   0  0  0  0  0  0
  -55.3241   -6.9662   14.0046 C   0  0  0  0  0  0
  -54.7470   -8.3869   15.8300 C   0  0  0  0  0  0
  -55.5049   -8.1348   14.7099 C   0  0  0  0  0  0
  -48.2321    1.5657   17.7856 H   0  0  0  0  0  0
  -51.2878    0.1387   18.5814 H   0  0  0  0  0  0
  -49.5823   -6.8322   16.4667 H   0  0  0  0  0  0
  -42.3878   -2.3934   15.3876 H   0  0  0  0  0  0
  -42.5369   -1.8424   16.7994 H   0  0  0  0  0  0
  1  5  1  0  0  0
  1  6  1  0  0  0
  1  7  2  0  0  0
  1 12  1  0  0  0
  2 16  1  0  0  0
  2 19  1  0  0  0
  3 17  1  0  0  0
  3 43  1  0  0  0
  4 18  1  0  0  0
  4 44  1  0  0  0
  5 21  1  0  0  0
  6 35  1  0  0  0
  8 30  1  0  0  0
  8 33  1  0  0  0
  9 33  2  0  0  0
 10 11  1  0  0  0
 10 20  1  0  0  0
 10 24  1  0  0  0
 11 28  2  0  0  0
 12 27  1  0  0  0
 12 45  1  0  0  0
 13 22  3  0  0  0
 14 26  2  0  0  0
 14 28  1  0  0  0
 15 26  1  0  0  0
 15 46  1  0  0  0
 15 47  1  0  0  0
 16 17  1  0  0  0
 16 20  1  0  0  0
 16 22  1  0  0  0
 17 18  1  0  0  0
 18 19  1  0  0  0
 19 21  1  0  0  0
 20 23  2  0  0  0
 23 25  1  0  0  0
 24 25  2  0  0  0
 24 26  1  0  0  0
 27 33  1  0  0  0
 27 34  1  0  0  0
 29 30  1  0  0  0
 29 31  1  0  0  0
 29 32  1  0  0  0
 31 36  1  0  0  0
 32 37  1  0  0  0
 35 38  2  0  0  0
 35 39  1  0  0  0
 38 40  1  0  0  0
 39 41  2  0  0  0
 40 42  2  0  0  0
 41 42  1  0  0  0
M  END
>  <CHROM.0>
67.54793351,-60.56778076,-166.02946843

>  <CHROM.1>
-47.69761498,-178.23204706,81.48767306,50.69366440,-57.52207851,160.12216420
-102.12116952,-100.43920710,23.70407867,-46.60946732,54.39425350,37.33192851
104.22950440,64.72312742,-169.64380800,-61.36162190,-50.21322789,-3.66708060
17.31916470,-2.68798287,0.48642794,0.83821847

>  <HEADER>
                                                                          

>  <MASTER>
        0    0    0    0    0    0    0    0   77    0   77    0          

>  <Name>
Remdesivir.pdb

>  <RI>
-9.33821e+08

>  <Rbt.Current_Directory>
/root/miniconda3/envs/rdock/share/rxdock-2013.1.1_148c5bd1-0/data/ligands/prepped_ligands/Remdesivir

>  <Rbt.Executable>
rbdock/0.1.0

>  <Rbt.Library>
librxdock.so/0.1.0

>  <Rbt.Parameter_File>
/root/miniconda3/envs/rdock/share/rxdock-2013.1.1_148c5bd1-0/data/scripts/dock.prm

>  <Rbt.Receptor>
def.prm

>  <SCORE>
-16.8845

>  <SCORE.INTER>
-9.72421

>  <SCORE.INTER.CONST>
1

>  <SCORE.INTER.POLAR>
-0.675276

>  <SCORE.INTER.REPUL>
0.160143

>  <SCORE.INTER.ROT>
14

>  <SCORE.INTER.VDW>
-27.629

>  <SCORE.INTER.norm>
-0.231529

>  <SCORE.INTRA>
-7.08129

>  <SCORE.INTRA.DIHEDRAL>
-10.8989

>  <SCORE.INTRA.DIHEDRAL.0>
33.3194

>  <SCORE.INTRA.POLAR>
0

>  <SCORE.INTRA.POLAR.0>
0

>  <SCORE.INTRA.REPUL>
-0.188091

>  <SCORE.INTRA.REPUL.0>
0.188091

>  <SCORE.INTRA.VDW>
-0.691397

>  <SCORE.INTRA.VDW.0>
-0.0599272

>  <SCORE.INTRA.norm>
-0.168602

>  <SCORE.RESTR>
0.624196

>  <SCORE.RESTR.CAVITY>
0.624196

>  <SCORE.RESTR.norm>
0.0148618

>  <SCORE.SYSTEM>
-0.703196

>  <SCORE.SYSTEM.CONST>
0

>  <SCORE.SYSTEM.DIHEDRAL>
0.58515

>  <SCORE.SYSTEM.POLAR>
-0.0198122

>  <SCORE.SYSTEM.VDW>
-0.92841

>  <SCORE.SYSTEM.norm>
-0.0167428

>  <SCORE.heavy>
42

>  <SCORE.norm>
-0.402012

>  <TITLE>
    121304016_D                                                           

$$$$
Remdesivir.pdb
  RxDock  02242110003D
librxdock.so/0.1.0
 47 50  0  0  0  0  0  0  0  0999 V2000
  -49.9890   -0.1098   17.6649 P   0  0  0  0  0  0
  -50.8400   -5.0933   17.3136 O   0  0  0  0  0  0
  -52.9409   -6.0566   20.0755 O   0  0  0  0  0  0
  -53.5004   -3.7528   18.9417 O   0  0  0  0  0  0
  -50.9484   -1.4028   17.6555 O   0  0  0  0  0  0
  -48.9645   -0.4013   16.4525 O   0  0  0  0  0  0
  -50.7862    1.1381   17.3882 O   0  0  0  0  0  0
  -45.8345    0.3326   19.1255 O   0  0  0  0  0  0
  -47.1317   -0.0910   20.9129 O   0  0  0  0  0  0
  -49.1430   -7.1687   18.2772 N   0  0  0  0  0  0
  -48.3114   -6.0900   18.1653 N   0  0  0  0  0  0
  -49.2937    0.0268   18.9934 N   0  0  0  0  0  0
  -53.5658   -6.9785   16.8110 N   0  0  0  0  0  0
  -46.4060   -7.5223   18.3943 N   0  0  0  0  0  0
  -46.6601   -9.8080   18.6711 N   0  0  0  0  0  0
  -51.4466   -6.1459   18.0857 C   0  0  0  0  0  0
  -51.8157   -5.4563   19.4151 C   0  0  0  0  0  0
  -52.0881   -3.9913   19.0377 C   0  0  0  0  0  0
  -51.4285   -3.8245   17.6557 C   0  0  0  0  0  0
  -50.4912   -7.3203   18.2597 C   0  0  0  0  0  0
  -50.3626   -2.7156   17.6601 C   0  0  0  0  0  0
  -52.6428   -6.6156   17.3651 C   0  0  0  0  0  0
  -50.8327   -8.6164   18.4131 C   0  0  0  0  0  0
  -48.6457   -8.4218   18.4467 C   0  0  0  0  0  0
  -49.6426   -9.3394   18.5355 C   0  0  0  0  0  0
  -47.2344   -8.5707   18.5032 C   0  0  0  0  0  0
  -48.1185    0.9036   18.9268 C   0  0  0  0  0  0
  -47.0191   -6.3070   18.2274 C   0  0  0  0  0  0
  -43.4089   -0.1719   18.9781 C   0  0  0  0  0  0
  -44.7138   -0.2712   19.8003 C   0  0  0  0  0  0
  -43.6111   -0.8609   17.6089 C   0  0  0  0  0  0
  -43.0231    1.3118   18.7682 C   0  0  0  0  0  0
  -47.0084    0.3359   19.7798 C   0  0  0  0  0  0
  -48.5079    2.2891   19.4664 C   0  0  0  0  0  0
  -49.3508   -1.0642   15.3206 C   0  0  0  0  0  0
  -43.7148   -2.3909   17.7428 C   0  0  0  0  0  0
  -42.4333    1.9293   20.0503 C   0  0  0  0  0  0
  -50.6240   -0.9215   14.7989 C   0  0  0  0  0  0
  -48.4473   -1.8897   14.6807 C   0  0  0  0  0  0
  -50.9859   -1.5972   13.6572 C   0  0  0  0  0  0
  -48.8108   -2.5662   13.5397 C   0  0  0  0  0  0
  -50.0796   -2.4209   13.0280 C   0  0  0  0  0  0
  -53.1875   -5.5522   20.9108 H   0  0  0  0  0  0
  -53.6937   -2.8047   18.6688 H   0  0  0  0  0  0
  -49.0151   -0.9006   19.3343 H   0  0  0  0  0  0
  -45.7840   -9.8818   18.7027 H   0  0  0  0  0  0
  -47.1626  -10.5273   18.7471 H   0  0  0  0  0  0
  1  5  1  0  0  0
  1  6  1  0  0  0
  1  7  2  0  0  0
  1 12  1  0  0  0
  2 16  1  0  0  0
  2 19  1  0  0  0
  3 17  1  0  0  0
  3 43  1  0  0  0
  4 18  1  0  0  0
  4 44  1  0  0  0
  5 21  1  0  0  0
  6 35  1  0  0  0
  8 30  1  0  0  0
  8 33  1  0  0  0
  9 33  2  0  0  0
 10 11  1  0  0  0
 10 20  1  0  0  0
 10 24  1  0  0  0
 11 28  2  0  0  0
 12 27  1  0  0  0
 12 45  1  0  0  0
 13 22  3  0  0  0
 14 26  2  0  0  0
 14 28  1  0  0  0
 15 26  1  0  0  0
 15 46  1  0  0  0
 15 47  1  0  0  0
 16 17  1  0  0  0
 16 20  1  0  0  0
 16 22  1  0  0  0
 17 18  1  0  0  0
 18 19  1  0  0  0
 19 21  1  0  0  0
 20 23  2  0  0  0
 23 25  1  0  0  0
 24 25  2  0  0  0
 24 26  1  0  0  0
 27 33  1  0  0  0
 27 34  1  0  0  0
 29 30  1  0  0  0
 29 31  1  0  0  0
 29 32  1  0  0  0
 31 36  1  0  0  0
 32 37  1  0  0  0
 35 38  2  0  0  0
 35 39  1  0  0  0
 38 40  1  0  0  0
 39 41  2  0  0  0
 40 42  2  0  0  0
 41 42  1  0  0  0
M  END
>  <CHROM.0>
-164.87601336,67.22379195,51.73498441

>  <CHROM.1>
51.03046037,34.07460153,161.86764510,-176.76776098,-178.32764800,179.76082972
34.43752748,-177.90601464,3.20414364,-140.82135457,28.97605060,165.09152666
132.89046657,-58.46990374,-70.53197402,75.40539780,-48.85207631,-3.09988734
17.91952855,0.99633216,-0.27734980,-0.11730347

>  <HEADER>
                                                                          

>  <MASTER>
        0    0    0    0    0    0    0    0   77    0   77    0          

>  <Name>
Remdesivir.pdb

>  <RI>
-9.33821e+08

>  <Rbt.Current_Directory>
/root/miniconda3/envs/rdock/share/rxdock-2013.1.1_148c5bd1-0/data/ligands/prepped_ligands/Remdesivir

>  <Rbt.Executable>
rbdock/0.1.0

>  <Rbt.Library>
librxdock.so/0.1.0

>  <Rbt.Parameter_File>
/root/miniconda3/envs/rdock/share/rxdock-2013.1.1_148c5bd1-0/data/scripts/dock.prm

>  <Rbt.Receptor>
def.prm

>  <SCORE>
-25.0457

>  <SCORE.INTER>
-10.2094

>  <SCORE.INTER.CONST>
1

>  <SCORE.INTER.POLAR>
-1.15841

>  <SCORE.INTER.REPUL>
0

>  <SCORE.INTER.ROT>
14

>  <SCORE.INTER.VDW>
-25.6708

>  <SCORE.INTER.norm>
-0.243081

>  <SCORE.INTRA>
-15.1374

>  <SCORE.INTRA.DIHEDRAL>
-22.9193

>  <SCORE.INTRA.DIHEDRAL.0>
33.3194

>  <SCORE.INTRA.POLAR>
0

>  <SCORE.INTRA.POLAR.0>
0

>  <SCORE.INTRA.REPUL>
-0.188091

>  <SCORE.INTRA.REPUL.0>
0.188091

>  <SCORE.INTRA.VDW>
-2.73727

>  <SCORE.INTRA.VDW.0>
-0.0599272

>  <SCORE.INTRA.norm>
-0.360414

>  <SCORE.RESTR>
0.857685

>  <SCORE.RESTR.CAVITY>
0.857685

>  <SCORE.RESTR.norm>
0.0204211

>  <SCORE.SYSTEM>
-0.556644

>  <SCORE.SYSTEM.CONST>
0

>  <SCORE.SYSTEM.DIHEDRAL>
0.952541

>  <SCORE.SYSTEM.VDW>
-1.03291

>  <SCORE.SYSTEM.norm>
-0.0132534

>  <SCORE.heavy>
42

>  <SCORE.norm>
-0.596327

>  <TITLE>
    121304016_D                                                           

$$$$
Remdesivir.pdb
  RxDock  02242110003D
librxdock.so/0.1.0
 47 50  0  0  0  0  0  0  0  0999 V2000
  -47.7015   -0.5667   17.1929 P   0  0  0  0  0  0
  -50.9179   -2.9677   18.6734 O   0  0  0  0  0  0
  -51.7992   -4.4741   21.8237 O   0  0  0  0  0  0
  -51.5709   -1.8561   21.8140 O   0  0  0  0  0  0
  -49.1228   -1.0125   17.8040 O   0  0  0  0  0  0
  -47.7312   -1.1827   15.7015 O   0  0  0  0  0  0
  -47.6013    0.9354   17.1371 O   0  0  0  0  0  0
  -44.0487   -1.2130   19.0961 O   0  0  0  0  0  0
  -43.7477   -3.1309   17.9613 O   0  0  0  0  0  0
  -50.2366   -6.1283   18.8724 N   0  0  0  0  0  0
  -49.1136   -5.9792   19.6368 N   0  0  0  0  0  0
  -46.5707   -1.1115   18.0244 N   0  0  0  0  0  0
  -54.1265   -3.5439   19.4540 N   0  0  0  0  0  0
  -48.2735   -8.0710   18.8285 N   0  0  0  0  0  0
  -49.4847   -9.3354   17.3119 N   0  0  0  0  0  0
  -51.5656   -4.0396   19.3830 C   0  0  0  0  0  0
  -50.9346   -3.9795   20.7891 C   0  0  0  0  0  0
  -50.5791   -2.4989   20.9993 C   0  0  0  0  0  0
  -50.5900   -1.8988   19.5808 C   0  0  0  0  0  0
  -51.3481   -5.3742   18.6802 C   0  0  0  0  0  0
  -49.2341   -1.2722   19.2135 C   0  0  0  0  0  0
  -53.0115   -3.7590   19.4222 C   0  0  0  0  0  0
  -52.1886   -5.9679   17.8078 C   0  0  0  0  0  0
  -50.4078   -7.2224   18.0852 C   0  0  0  0  0  0
  -51.5880   -7.1677   17.4159 C   0  0  0  0  0  0
  -49.3808   -8.2035   18.0846 C   0  0  0  0  0  0
  -45.4306   -1.5468   17.2090 C   0  0  0  0  0  0
  -48.2092   -6.9280   19.5836 C   0  0  0  0  0  0
  -42.9979   -0.6547   21.2742 C   0  0  0  0  0  0
  -43.1596   -1.6800   20.1292 C   0  0  0  0  0  0
  -42.0614    0.4859   20.8134 C   0  0  0  0  0  0
  -44.3771   -0.0754   21.6693 C   0  0  0  0  0  0
  -44.3336   -2.0736   18.1041 C   0  0  0  0  0  0
  -44.8994   -0.3380   16.4220 C   0  0  0  0  0  0
  -48.2481   -0.4904   14.6415 C   0  0  0  0  0  0
  -42.6761    1.3095   19.6674 C   0  0  0  0  0  0
  -45.2410   -1.1206   22.4002 C   0  0  0  0  0  0
  -47.4921   -0.2260   13.5136 C   0  0  0  0  0  0
  -49.5562   -0.0509   14.6961 C   0  0  0  0  0  0
  -48.0372    0.4696   12.4601 C   0  0  0  0  0  0
  -50.0999    0.6461   13.6425 C   0  0  0  0  0  0
  -49.3412    0.9071   12.5250 C   0  0  0  0  0  0
  -51.3264   -4.5075   22.7115 H   0  0  0  0  0  0
  -51.3483   -0.8876   21.9657 H   0  0  0  0  0  0
  -46.9080   -1.8956   18.5947 H   0  0  0  0  0  0
  -48.8384   -9.9321   17.3229 H   0  0  0  0  0  0
  -50.1932   -9.4674   16.8057 H   0  0  0  0  0  0
  1  5  1  0  0  0
  1  6  1  0  0  0
  1  7  2  0  0  0
  1 12  1  0  0  0
  2 16  1  0  0  0
  2 19  1  0  0  0
  3 17  1  0  0  0
  3 43  1  0  0  0
  4 18  1  0  0  0
  4 44  1  0  0  0
  5 21  1  0  0  0
  6 35  1  0  0  0
  8 30  1  0  0  0
  8 33  1  0  0  0
  9 33  2  0  0  0
 10 11  1  0  0  0
 10 20  1  0  0  0
 10 24  1  0  0  0
 11 28  2  0  0  0
 12 27  1  0  0  0
 12 45  1  0  0  0
 13 22  3  0  0  0
 14 26  2  0  0  0
 14 28  1  0  0  0
 15 26  1  0  0  0
 15 46  1  0  0  0
 15 47  1  0  0  0
 16 17  1  0  0  0
 16 20  1  0  0  0
 16 22  1  0  0  0
 17 18  1  0  0  0
 18 19  1  0  0  0
 19 21  1  0  0  0
 20 23  2  0  0  0
 23 25  1  0  0  0
 24 25  2  0  0  0
 24 26  1  0  0  0
 27 33  1  0  0  0
 27 34  1  0  0  0
 29 30  1  0  0  0
 29 31  1  0  0  0
 29 32  1  0  0  0
 31 36  1  0  0  0
 32 37  1  0  0  0
 35 38  2  0  0  0
 35 39  1  0  0  0
 38 40  1  0  0  0
 39 41  2  0  0  0
 40 42  2  0  0  0
 41 42  1  0  0  0
M  END
>  <CHROM.0>
-146.89056015,-59.84961051,63.23702128

>  <CHROM.1>
148.51963662,88.57966938,141.80071552,174.28444159,179.59773653,-170.82491351
122.97941029,-175.18703459,-9.74279109,179.71101183,84.22730245,46.33654568
-50.21898474,-76.37216330,65.48729565,71.04347721,-48.23578501,-2.57202007
18.30504295,0.53178337,-0.53006920,-0.86986238

>  <HEADER>
                                                                          

>  <MASTER>
        0    0    0    0    0    0    0    0   77    0   77    0          

>  <Name>
Remdesivir.pdb

>  <RI>
-9.33821e+08

>  <Rbt.Current_Directory>
/root/miniconda3/envs/rdock/share/rxdock-2013.1.1_148c5bd1-0/data/ligands/prepped_ligands/Remdesivir

>  <Rbt.Executable>
rbdock/0.1.0

>  <Rbt.Library>
librxdock.so/0.1.0

>  <Rbt.Parameter_File>
/root/miniconda3/envs/rdock/share/rxdock-2013.1.1_148c5bd1-0/data/scripts/dock.prm

>  <Rbt.Receptor>
def.prm

>  <SCORE>
-7.78718

>  <SCORE.INTER>
-0.976982

>  <SCORE.INTER.CONST>
1

>  <SCORE.INTER.POLAR>
-0.663854

>  <SCORE.INTER.REPUL>
0.273706

>  <SCORE.INTER.ROT>
14

>  <SCORE.INTER.VDW>
-19.4884

>  <SCORE.INTER.norm>
-0.0232615

>  <SCORE.INTRA>
-8.05902

>  <SCORE.INTRA.DIHEDRAL>
-20.5862

>  <SCORE.INTRA.DIHEDRAL.0>
33.3194

>  <SCORE.INTRA.POLAR>
0

>  <SCORE.INTRA.POLAR.0>
0

>  <SCORE.INTRA.REPUL>
-0.188091

>  <SCORE.INTRA.REPUL.0>
0.188091

>  <SCORE.INTRA.VDW>
3.17454

>  <SCORE.INTRA.VDW.0>
-0.0599272

>  <SCORE.INTRA.norm>
-0.191881

>  <SCORE.RESTR>
0.892442

>  <SCORE.RESTR.CAVITY>
0.892442

>  <SCORE.RESTR.norm>
0.0212486

>  <SCORE.SYSTEM>
0.356371

>  <SCORE.SYSTEM.CONST>
0

>  <SCORE.SYSTEM.DIHEDRAL>
2.10121

>  <SCORE.SYSTEM.POLAR>
-0.00798758

>  <SCORE.SYSTEM.VDW>
-0.667074

>  <SCORE.SYSTEM.norm>
0.00848503

>  <SCORE.heavy>
42

>  <SCORE.norm>
-0.185409

>  <TITLE>
    121304016_D                                                           

$$$$
Remdesivir.pdb
  RxDock  02242110003D
librxdock.so/0.1.0
 47 50  0  0  0  0  0  0  0  0999 V2000
  -50.0511   -2.1942   20.5862 P   0  0  0  0  0  0
  -45.9108   -1.1186   20.5472 O   0  0  0  0  0  0
  -45.7903    2.1380   19.0142 O   0  0  0  0  0  0
  -46.5353    2.0694   21.5334 O   0  0  0  0  0  0
  -48.4676   -1.9589   20.7578 O   0  0  0  0  0  0
  -50.1429   -3.7150   20.0540 O   0  0  0  0  0  0
  -50.7492   -2.0612   21.9144 O   0  0  0  0  0  0
  -52.2980   -2.6039   17.7887 O   0  0  0  0  0  0
  -53.3609   -3.2472   19.6630 O   0  0  0  0  0  0
  -45.9128   -1.0579   17.2537 N   0  0  0  0  0  0
  -47.1752   -0.5697   17.0648 N   0  0  0  0  0  0
  -50.6338   -1.2023   19.6148 N   0  0  0  0  0  0
  -43.0721    0.6642   20.5428 N   0  0  0  0  0  0
  -47.2444   -1.5629   14.8869 N   0  0  0  0  0  0
  -45.4443   -2.7708   14.0705 N   0  0  0  0  0  0
  -45.3177   -0.2425   19.5711 C   0  0  0  0  0  0
  -46.3621    0.8806   19.4071 C   0  0  0  0  0  0
  -47.0617    0.9716   20.7728 C   0  0  0  0  0  0
  -46.7226   -0.3620   21.4648 C   0  0  0  0  0  0
  -45.0214   -0.9855   18.2740 C   0  0  0  0  0  0
  -47.9888   -1.1485   21.8444 C   0  0  0  0  0  0
  -44.0497    0.2686   20.1205 C   0  0  0  0  0  0
  -43.8854   -1.6464   17.9696 C   0  0  0  0  0  0
  -45.2948   -1.7924   16.2920 C   0  0  0  0  0  0
  -44.0524   -2.1735   16.6858 C   0  0  0  0  0  0
  -46.0055   -2.0346   15.0865 C   0  0  0  0  0  0
  -52.1006   -1.1690   19.6554 C   0  0  0  0  0  0
  -47.7675   -0.8348   15.9247 C   0  0  0  0  0  0
  -52.4923   -3.7565   15.5993 C   0  0  0  0  0  0
  -52.7709   -3.7888   17.1191 C   0  0  0  0  0  0
  -51.0118   -3.3832   15.3565 C   0  0  0  0  0  0
  -52.7956   -5.1384   14.9727 C   0  0  0  0  0  0
  -52.6571   -2.4476   19.0742 C   0  0  0  0  0  0
  -52.5887    0.0199   18.8122 C   0  0  0  0  0  0
  -49.5476   -4.1124   18.8887 C   0  0  0  0  0  0
  -50.8036   -2.7092   13.9883 C   0  0  0  0  0  0
  -54.3078   -5.4319   14.9561 C   0  0  0  0  0  0
  -49.8131   -5.3481   18.3267 C   0  0  0  0  0  0
  -48.6664   -3.2578   18.2559 C   0  0  0  0  0  0
  -49.2033   -5.7217   17.1522 C   0  0  0  0  0  0
  -48.0558   -3.6331   17.0821 C   0  0  0  0  0  0
  -48.3232   -4.8646   16.5303 C   0  0  0  0  0  0
  -45.3600    2.0772   18.1065 H   0  0  0  0  0  0
  -46.9633    2.1241   22.4414 H   0  0  0  0  0  0
  -50.3186   -1.4246   18.6635 H   0  0  0  0  0  0
  -45.8995   -2.9119   13.3310 H   0  0  0  0  0  0
  -44.6327   -3.1023   14.1545 H   0  0  0  0  0  0
  1  5  1  0  0  0
  1  6  1  0  0  0
  1  7  2  0  0  0
  1 12  1  0  0  0
  2 16  1  0  0  0
  2 19  1  0  0  0
  3 17  1  0  0  0
  3 43  1  0  0  0
  4 18  1  0  0  0
  4 44  1  0  0  0
  5 21  1  0  0  0
  6 35  1  0  0  0
  8 30  1  0  0  0
  8 33  1  0  0  0
  9 33  2  0  0  0
 10 11  1  0  0  0
 10 20  1  0  0  0
 10 24  1  0  0  0
 11 28  2  0  0  0
 12 27  1  0  0  0
 12 45  1  0  0  0
 13 22  3  0  0  0
 14 26  2  0  0  0
 14 28  1  0  0  0
 15 26  1  0  0  0
 15 46  1  0  0  0
 15 47  1  0  0  0
 16 17  1  0  0  0
 16 20  1  0  0  0
 16 22  1  0  0  0
 17 18  1  0  0  0
 18 19  1  0  0  0
 19 21  1  0  0  0
 20 23  2  0  0  0
 23 25  1  0  0  0
 24 25  2  0  0  0
 24 26  1  0  0  0
 27 33  1  0  0  0
 27 34  1  0  0  0
 29 30  1  0  0  0
 29 31  1  0  0  0
 29 32  1  0  0  0
 31 36  1  0  0  0
 32 37  1  0  0  0
 35 38  2  0  0  0
 35 39  1  0  0  0
 38 40  1  0  0  0
 39 41  2  0  0  0
 40 42  2  0  0  0
 41 42  1  0  0  0
M  END
>  <CHROM.0>
-90.87172311,-63.48738594,-58.59615159

>  <CHROM.1>
-144.10176725,-59.73019409,-166.79617123,63.44480004,-178.21639005,-146.53366729
-169.03140240,170.88085892,-0.84867765,-70.03426744,90.92305077,-33.54732320
-61.27177140,49.51303866,-153.57229145,70.14081649,-48.62549049,-1.95800198
18.30500270,2.65665080,-0.33029503,-2.02810254

>  <HEADER>
                                                                          

>  <MASTER>
        0    0    0    0    0    0    0    0   77    0   77    0          

>  <Name>
Remdesivir.pdb

>  <RI>
-9.33821e+08

>  <Rbt.Current_Directory>
/root/miniconda3/envs/rdock/share/rxdock-2013.1.1_148c5bd1-0/data/ligands/prepped_ligands/Remdesivir

>  <Rbt.Executable>
rbdock/0.1.0

>  <Rbt.Library>
librxdock.so/0.1.0

>  <Rbt.Parameter_File>
/root/miniconda3/envs/rdock/share/rxdock-2013.1.1_148c5bd1-0/data/scripts/dock.prm

>  <Rbt.Receptor>
def.prm

>  <SCORE>
-24.2135

>  <SCORE.INTER>
-8.06602

>  <SCORE.INTER.CONST>
1

>  <SCORE.INTER.POLAR>
-0.715227

>  <SCORE.INTER.REPUL>
0.133912

>  <SCORE.INTER.ROT>
14

>  <SCORE.INTER.VDW>
-25.7038

>  <SCORE.INTER.norm>
-0.192048

>  <SCORE.INTRA>
-16.9587

>  <SCORE.INTRA.DIHEDRAL>
-19.1327

>  <SCORE.INTRA.DIHEDRAL.0>
33.3194

>  <SCORE.INTRA.POLAR>
-0.00144617

>  <SCORE.INTRA.POLAR.0>
0

>  <SCORE.INTRA.REPUL>
-0.169246

>  <SCORE.INTRA.REPUL.0>
0.188091

>  <SCORE.INTRA.VDW>
-6.54116

>  <SCORE.INTRA.VDW.0>
-0.0599272

>  <SCORE.INTRA.norm>
-0.403778

>  <SCORE.RESTR>
0.627388

>  <SCORE.RESTR.CAVITY>
0.627388

>  <SCORE.RESTR.norm>
0.0149378

>  <SCORE.SYSTEM>
0.183823

>  <SCORE.SYSTEM.CONST>
0

>  <SCORE.SYSTEM.DIHEDRAL>
1.95991

>  <SCORE.SYSTEM.POLAR>
-0.0042432

>  <SCORE.SYSTEM.VDW>
-0.781703

>  <SCORE.SYSTEM.norm>
0.00437674

>  <SCORE.heavy>
42

>  <SCORE.norm>
-0.576511

>  <TITLE>
    121304016_D                                                           

$$$$
Remdesivir.pdb
  RxDock  02242110003D
librxdock.so/0.1.0
 47 50  0  0  0  0  0  0  0  0999 V2000
  -50.7111   -1.0778   17.9498 P   0  0  0  0  0  0
  -46.2480   -0.0864   16.7442 O   0  0  0  0  0  0
  -45.5743   -3.6059   16.3851 O   0  0  0  0  0  0
  -47.4736   -2.6270   14.8553 O   0  0  0  0  0  0
  -49.1576   -0.6622   17.8710 O   0  0  0  0  0  0
  -50.9314   -1.3873   19.5184 O   0  0  0  0  0  0
  -51.5849    0.0697   17.5147 O   0  0  0  0  0  0
  -53.1974   -3.4960   16.3410 O   0  0  0  0  0  0
  -52.6679   -3.3359   14.1614 O   0  0  0  0  0  0
  -43.8333    0.2104   18.3400 N   0  0  0  0  0  0
  -43.9632    1.4760   17.8410 N   0  0  0  0  0  0
  -50.9866   -2.2735   17.0772 N   0  0  0  0  0  0
  -43.9015   -1.1680   14.6086 N   0  0  0  0  0  0
  -42.4807    2.3048   19.5291 N   0  0  0  0  0  0
  -41.5486    0.8803   21.1001 N   0  0  0  0  0  0
  -45.3005   -1.1679   16.8113 C   0  0  0  0  0  0
  -46.1887   -2.4241   16.9221 C   0  0  0  0  0  0
  -47.4815   -2.0607   16.1743 C   0  0  0  0  0  0
  -47.4539   -0.5229   16.0897 C   0  0  0  0  0  0
  -44.3508   -0.9941   17.9904 C   0  0  0  0  0  0
  -48.6899    0.1093   16.7518 C   0  0  0  0  0  0
  -44.5108   -1.1669   15.5674 C   0  0  0  0  0  0
  -43.9094   -1.9663   18.8151 C   0  0  0  0  0  0
  -43.0457   -0.0397   19.4187 C   0  0  0  0  0  0
  -43.0622   -1.3575   19.7455 C   0  0  0  0  0  0
  -42.3637    1.0580   20.0077 C   0  0  0  0  0  0
  -51.5486   -1.9018   15.7732 C   0  0  0  0  0  0
  -43.3021    2.4383   18.4391 C   0  0  0  0  0  0
  -53.3376   -5.9541   16.0277 C   0  0  0  0  0  0
  -54.0774   -4.5972   16.0430 C   0  0  0  0  0  0
  -54.1258   -6.9587   15.1560 C   0  0  0  0  0  0
  -51.9086   -5.7753   15.4621 C   0  0  0  0  0  0
  -52.5154   -2.9667   15.3111 C   0  0  0  0  0  0
  -50.4008   -1.7906   14.7571 C   0  0  0  0  0  0
  -50.9272   -2.6621   20.0132 C   0  0  0  0  0  0
  -55.4909   -7.3114   15.7736 C   0  0  0  0  0  0
  -50.8709   -5.6122   16.5889 C   0  0  0  0  0  0
  -49.7916   -3.4506   19.9686 C   0  0  0  0  0  0
  -52.0812   -3.1711   20.5758 C   0  0  0  0  0  0
  -49.8135   -4.7283   20.4764 C   0  0  0  0  0  0
  -52.1025   -4.4497   21.0819 C   0  0  0  0  0  0
  -50.9696   -5.2287   21.0321 C   0  0  0  0  0  0
  -44.7128   -3.8189   16.8597 H   0  0  0  0  0  0
  -47.1295   -3.5716   14.8647 H   0  0  0  0  0  0
  -51.6272   -2.9136   17.5607 H   0  0  0  0  0  0
  -41.1329    1.5714   21.4514 H   0  0  0  0  0  0
  -41.4394    0.0797   21.4506 H   0  0  0  0  0  0
  1  5  1  0  0  0
  1  6  1  0  0  0
  1  7  2  0  0  0
  1 12  1  0  0  0
  2 16  1  0  0  0
  2 19  1  0  0  0
  3 17  1  0  0  0
  3 43  1  0  0  0
  4 18  1  0  0  0
  4 44  1  0  0  0
  5 21  1  0  0  0
  6 35  1  0  0  0
  8 30  1  0  0  0
  8 33  1  0  0  0
  9 33  2  0  0  0
 10 11  1  0  0  0
 10 20  1  0  0  0
 10 24  1  0  0  0
 11 28  2  0  0  0
 12 27  1  0  0  0
 12 45  1  0  0  0
 13 22  3  0  0  0
 14 26  2  0  0  0
 14 28  1  0  0  0
 15 26  1  0  0  0
 15 46  1  0  0  0
 15 47  1  0  0  0
 16 17  1  0  0  0
 16 20  1  0  0  0
 16 22  1  0  0  0
 17 18  1  0  0  0
 18 19  1  0  0  0
 19 21  1  0  0  0
 20 23  2  0  0  0
 23 25  1  0  0  0
 24 25  2  0  0  0
 24 26  1  0  0  0
 27 33  1  0  0  0
 27 34  1  0  0  0
 29 30  1  0  0  0
 29 31  1  0  0  0
 29 32  1  0  0  0
 31 36  1  0  0  0
 32 37  1  0  0  0
 35 38  2  0  0  0
 35 39  1  0  0  0
 38 40  1  0  0  0
 39 41  2  0  0  0
 40 42  2  0  0  0
 41 42  1  0  0  0
M  END
>  <CHROM.0>
-178.56119198,-173.72843701,56.67691758

>  <CHROM.1>
-158.95895770,-99.34953189,-98.32108693,59.70604874,42.68277611,-128.79247894
64.53554629,84.64003527,3.74288764,-146.46500094,-40.46261182,-86.60970589
35.68177664,-156.22327941,-66.28022758,96.30411935,-48.56487794,-2.11602020
17.49568502,2.95250484,-0.46924769,-1.61003028

>  <HEADER>
                                                                          

>  <MASTER>
        0    0    0    0    0    0    0    0   77    0   77    0          

>  <Name>
Remdesivir.pdb

>  <RI>
-9.33821e+08

>  <Rbt.Current_Directory>
/root/miniconda3/envs/rdock/share/rxdock-2013.1.1_148c5bd1-0/data/ligands/prepped_ligands/Remdesivir

>  <Rbt.Executable>
rbdock/0.1.0

>  <Rbt.Library>
librxdock.so/0.1.0

>  <Rbt.Parameter_File>
/root/miniconda3/envs/rdock/share/rxdock-2013.1.1_148c5bd1-0/data/scripts/dock.prm

>  <Rbt.Receptor>
def.prm

>  <SCORE>
-13.7151

>  <SCORE.INTER>
-8.45753

>  <SCORE.INTER.CONST>
1

>  <SCORE.INTER.POLAR>
-1.5032

>  <SCORE.INTER.REPUL>
0.492457

>  <SCORE.INTER.ROT>
14

>  <SCORE.INTER.VDW>
-25.2089

>  <SCORE.INTER.norm>
-0.20137

>  <SCORE.INTRA>
-4.2836

>  <SCORE.INTRA.DIHEDRAL>
-2.46263

>  <SCORE.INTRA.DIHEDRAL.0>
33.3194

>  <SCORE.INTRA.POLAR>
-0.336218

>  <SCORE.INTRA.POLAR.0>
0

>  <SCORE.INTRA.REPUL>
-0.0355599

>  <SCORE.INTRA.REPUL.0>
0.188091

>  <SCORE.INTRA.VDW>
-1.73134

>  <SCORE.INTRA.VDW.0>
-0.0599272

>  <SCORE.INTRA.norm>
-0.10199

>  <SCORE.RESTR>
5.89492e-05

>  <SCORE.RESTR.CAVITY>
5.89492e-05

>  <SCORE.RESTR.norm>
1.40355e-06

>  <SCORE.SYSTEM>
-0.974025

>  <SCORE.SYSTEM.CONST>
0

>  <SCORE.SYSTEM.DIHEDRAL>
0.226478

>  <SCORE.SYSTEM.VDW>
-1.08726

>  <SCORE.SYSTEM.norm>
-0.0231911

>  <SCORE.heavy>
42

>  <SCORE.norm>
-0.32655

>  <TITLE>
    121304016_D                                                           

$$$$
Remdesivir.pdb
  RxDock  02242110013D
librxdock.so/0.1.0
 47 50  0  0  0  0  0  0  0  0999 V2000
  -50.9902   -4.4832   14.9120 P   0  0  0  0  0  0
  -49.3047   -1.5452   17.9764 O   0  0  0  0  0  0
  -51.0204    0.8932   19.9964 O   0  0  0  0  0  0
  -52.3998   -1.2446   19.3387 O   0  0  0  0  0  0
  -51.5443   -3.5101   16.0689 O   0  0  0  0  0  0
  -50.7354   -3.4784   13.6750 O   0  0  0  0  0  0
  -49.6964   -5.1251   15.3402 O   0  0  0  0  0  0
  -51.8383   -6.3787   17.2970 O   0  0  0  0  0  0
  -53.6818   -7.5539   16.7702 O   0  0  0  0  0  0
  -46.7517   -0.1699   18.6587 N   0  0  0  0  0  0
  -46.2583   -1.4443   18.6531 N   0  0  0  0  0  0
  -51.9972   -5.5557   14.5918 N   0  0  0  0  0  0
  -49.1051   -1.6514   21.3209 N   0  0  0  0  0  0
  -44.0401   -0.5950   18.3484 N   0  0  0  0  0  0
  -43.6459    1.6831   18.2045 N   0  0  0  0  0  0
  -49.2359   -0.5125   18.9768 C   0  0  0  0  0  0
  -50.5570    0.2620   18.7926 C   0  0  0  0  0  0
  -51.5576   -0.7824   18.2721 C   0  0  0  0  0  0
  -50.6738   -1.9348   17.7588 C   0  0  0  0  0  0
  -47.9966    0.3541   18.7874 C   0  0  0  0  0  0
  -50.9240   -2.2290   16.2699 C   0  0  0  0  0  0
  -49.1617   -1.1565   20.2998 C   0  0  0  0  0  0
  -47.9617    1.7012   18.7246 C   0  0  0  0  0  0
  -45.9278    0.9008   18.5130 C   0  0  0  0  0  0
  -46.6241    2.0660   18.5465 C   0  0  0  0  0  0
  -44.5390    0.6493   18.3553 C   0  0  0  0  0  0
  -53.1417   -5.5465   15.5107 C   0  0  0  0  0  0
  -44.9641   -1.5967   18.5023 C   0  0  0  0  0  0
  -50.3603   -6.8255   19.2401 C   0  0  0  0  0  0
  -51.6924   -7.1297   18.5179 C   0  0  0  0  0  0
  -50.5320   -7.0680   20.7574 C   0  0  0  0  0  0
  -49.2352   -7.7323   18.6868 C   0  0  0  0  0  0
  -52.9504   -6.6006   16.5758 C   0  0  0  0  0  0
  -54.4157   -5.8651   14.7120 C   0  0  0  0  0  0
  -49.8212   -2.4636   13.7420 C   0  0  0  0  0  0
  -49.3367   -6.5325   21.5661 C   0  0  0  0  0  0
  -48.7691   -7.2684   17.2938 C   0  0  0  0  0  0
  -48.5329   -2.6807   14.1964 C   0  0  0  0  0  0
  -50.1911   -1.1949   13.3409 C   0  0  0  0  0  0
  -47.6321   -1.6432   14.2506 C   0  0  0  0  0  0
  -49.2898   -0.1576   13.3970 C   0  0  0  0  0  0
  -48.0109   -0.3808   13.8521 C   0  0  0  0  0  0
  -50.3369    1.5368   20.3592 H   0  0  0  0  0  0
  -51.8711   -1.7459   20.0314 H   0  0  0  0  0  0
  -51.5416   -6.4753   14.6152 H   0  0  0  0  0  0
  -42.7888    1.5089   18.1091 H   0  0  0  0  0  0
  -43.9252    2.5183   18.2029 H   0  0  0  0  0  0
  1  5  1  0  0  0
  1  6  1  0  0  0
  1  7  2  0  0  0
  1 12  1  0  0  0
  2 16  1  0  0  0
  2 19  1  0  0  0
  3 17  1  0  0  0
  3 43  1  0  0  0
  4 18  1  0  0  0
  4 44  1  0  0  0
  5 21  1  0  0  0
  6 35  1  0  0  0
  8 30  1  0  0  0
  8 33  1  0  0  0
  9 33  2  0  0  0
 10 11  1  0  0  0
 10 20  1  0  0  0
 10 24  1  0  0  0
 11 28  2  0  0  0
 12 27  1  0  0  0
 12 45  1  0  0  0
 13 22  3  0  0  0
 14 26  2  0  0  0
 14 28  1  0  0  0
 15 26  1  0  0  0
 15 46  1  0  0  0
 15 47  1  0  0  0
 16 17  1  0  0  0
 16 20  1  0  0  0
 16 22  1  0  0  0
 17 18  1  0  0  0
 18 19  1  0  0  0
 19 21  1  0  0  0
 20 23  2  0  0  0
 23 25  1  0  0  0
 24 25  2  0  0  0
 24 26  1  0  0  0
 27 33  1  0  0  0
 27 34  1  0  0  0
 29 30  1  0  0  0
 29 31  1  0  0  0
 29 32  1  0  0  0
 31 36  1  0  0  0
 32 37  1  0  0  0
 35 38  2  0  0  0
 35 39  1  0  0  0
 38 40  1  0  0  0
 39 41  2  0  0  0
 40 42  2  0  0  0
 41 42  1  0  0  0
M  END
>  <CHROM.0>
-61.10435847,175.54267201,64.82638552

>  <CHROM.1>
-42.23593830,62.99228093,-6.92919249,58.38464665,-65.35803710,-134.97151587
48.48871247,178.26376602,-14.11691037,-98.77039117,-51.14154759,128.51263982
60.36315392,152.78521139,-169.12973345,74.80623266,-49.56807611,-2.78990892
17.28720433,2.98635734,0.90174224,2.02856179

>  <HEADER>
                                                                          

>  <MASTER>
        0    0    0    0    0    0    0    0   77    0   77    0          

>  <Name>
Remdesivir.pdb

>  <RI>
-9.33821e+08

>  <Rbt.Current_Directory>
/root/miniconda3/envs/rdock/share/rxdock-2013.1.1_148c5bd1-0/data/ligands/prepped_ligands/Remdesivir

>  <Rbt.Executable>
rbdock/0.1.0

>  <Rbt.Library>
librxdock.so/0.1.0

>  <Rbt.Parameter_File>
/root/miniconda3/envs/rdock/share/rxdock-2013.1.1_148c5bd1-0/data/scripts/dock.prm

>  <Rbt.Receptor>
def.prm

>  <SCORE>
-18.9475

>  <SCORE.INTER>
-12.238

>  <SCORE.INTER.CONST>
1

>  <SCORE.INTER.POLAR>
-1.30741

>  <SCORE.INTER.REPUL>
0.0409636

>  <SCORE.INTER.ROT>
14

>  <SCORE.INTER.VDW>
-27.3976

>  <SCORE.INTER.norm>
-0.29138

>  <SCORE.INTRA>
-6.52333

>  <SCORE.INTRA.DIHEDRAL>
-8.4408

>  <SCORE.INTRA.DIHEDRAL.0>
33.3194

>  <SCORE.INTRA.POLAR>
0

>  <SCORE.INTRA.POLAR.0>
0

>  <SCORE.INTRA.REPUL>
-0.133203

>  <SCORE.INTRA.REPUL.0>
0.188091

>  <SCORE.INTRA.VDW>
-1.63691

>  <SCORE.INTRA.VDW.0>
-0.0599272

>  <SCORE.INTRA.norm>
-0.155317

>  <SCORE.RESTR>
0.788715

>  <SCORE.RESTR.CAVITY>
0.788715

>  <SCORE.RESTR.norm>
0.0187789

>  <SCORE.SYSTEM>
-0.974945

>  <SCORE.SYSTEM.CONST>
0

>  <SCORE.SYSTEM.DIHEDRAL>
0.154897

>  <SCORE.SYSTEM.POLAR>
-0.0107171

>  <SCORE.SYSTEM.VDW>
-1.01596

>  <SCORE.SYSTEM.norm>
-0.023213

>  <SCORE.heavy>
42

>  <SCORE.norm>
-0.451132

>  <TITLE>
    121304016_D                                                           

$$$$
Remdesivir.pdb
  RxDock  02242110013D
librxdock.so/0.1.0
 47 50  0  0  0  0  0  0  0  0999 V2000
  -49.8205   -0.6380   16.3978 P   0  0  0  0  0  0
  -51.4451   -3.9442   17.1441 O   0  0  0  0  0  0
  -52.2016   -5.4524   20.3257 O   0  0  0  0  0  0
  -54.0017   -3.7921   19.3725 O   0  0  0  0  0  0
  -51.2037   -1.4468   16.2406 O   0  0  0  0  0  0
  -49.0355   -0.9795   15.0296 O   0  0  0  0  0  0
  -50.0850    0.8418   16.4943 O   0  0  0  0  0  0
  -45.7573    0.0516   18.4499 O   0  0  0  0  0  0
  -46.6603   -2.0000   18.6284 O   0  0  0  0  0  0
  -49.6548   -6.9782   18.1165 N   0  0  0  0  0  0
  -50.4479   -8.0681   18.3413 N   0  0  0  0  0  0
  -49.0752   -1.0927   17.6246 N   0  0  0  0  0  0
  -53.0104   -6.9041   17.3032 N   0  0  0  0  0  0
  -48.5185   -9.4865   18.3331 N   0  0  0  0  0  0
  -46.3988   -8.6127   18.0028 N   0  0  0  0  0  0
  -51.3073   -5.0671   18.0340 C   0  0  0  0  0  0
  -51.6594   -4.4816   19.4168 C   0  0  0  0  0  0
  -52.6586   -3.3508   19.1239 C   0  0  0  0  0  0
  -52.4687   -3.0528   17.6247 C   0  0  0  0  0  0
  -49.9019   -5.6526   17.9663 C   0  0  0  0  0  0
  -52.0717   -1.5874   17.3779 C   0  0  0  0  0  0
  -52.2689   -6.1039   17.6204 C   0  0  0  0  0  0
  -48.7574   -4.9693   17.7583 C   0  0  0  0  0  0
  -48.3074   -7.1054   17.9961 C   0  0  0  0  0  0
  -47.7170   -5.9027   17.7756 C   0  0  0  0  0  0
  -47.7535   -8.4081   18.1121 C   0  0  0  0  0  0
  -48.0851   -0.1091   18.0791 C   0  0  0  0  0  0
  -49.8634   -9.2387   18.4364 C   0  0  0  0  0  0
  -43.5088    0.5479   19.3763 C   0  0  0  0  0  0
  -44.4601   -0.4979   18.7519 C   0  0  0  0  0  0
  -44.0909    1.0310   20.7246 C   0  0  0  0  0  0
  -42.1088   -0.0717   19.5998 C   0  0  0  0  0  0
  -46.7899   -0.8079   18.4202 C   0  0  0  0  0  0
  -48.6265    0.5874   19.3377 C   0  0  0  0  0  0
  -47.6886   -1.2147   15.0061 C   0  0  0  0  0  0
  -43.6002    2.4431   21.0920 C   0  0  0  0  0  0
  -41.0548    1.0088   19.9072 C   0  0  0  0  0  0
  -46.7741   -0.1998   15.2234 C   0  0  0  0  0  0
  -47.2316   -2.4957   14.7663 C   0  0  0  0  0  0
  -45.4249   -0.4641   15.1975 C   0  0  0  0  0  0
  -45.8819   -2.7586   14.7391 C   0  0  0  0  0  0
  -44.9784   -1.7436   14.9540 C   0  0  0  0  0  0
  -51.5466   -6.1961   20.5011 H   0  0  0  0  0  0
  -54.1727   -3.9079   20.3564 H   0  0  0  0  0  0
  -48.6114   -1.9886   17.4346 H   0  0  0  0  0  0
  -46.0729   -9.4264   18.0785 H   0  0  0  0  0  0
  -45.8548   -7.9354   17.8580 H   0  0  0  0  0  0
  1  5  1  0  0  0
  1  6  1  0  0  0
  1  7  2  0  0  0
  1 12  1  0  0  0
  2 16  1  0  0  0
  2 19  1  0  0  0
  3 17  1  0  0  0
  3 43  1  0  0  0
  4 18  1  0  0  0
  4 44  1  0  0  0
  5 21  1  0  0  0
  6 35  1  0  0  0
  8 30  1  0  0  0
  8 33  1  0  0  0
  9 33  2  0  0  0
 10 11  1  0  0  0
 10 20  1  0  0  0
 10 24  1  0  0  0
 11 28  2  0  0  0
 12 27  1  0  0  0
 12 45  1  0  0  0
 13 22  3  0  0  0
 14 26  2  0  0  0
 14 28  1  0  0  0
 15 26  1  0  0  0
 15 46  1  0  0  0
 15 47  1  0  0  0
 16 17  1  0  0  0
 16 20  1  0  0  0
 16 22  1  0  0  0
 17 18  1  0  0  0
 18 19  1  0  0  0
 19 21  1  0  0  0
 20 23  2  0  0  0
 23 25  1  0  0  0
 24 25  2  0  0  0
 24 26  1  0  0  0
 27 33  1  0  0  0
 27 34  1  0  0  0
 29 30  1  0  0  0
 29 31  1  0  0  0
 29 32  1  0  0  0
 31 36  1  0  0  0
 32 37  1  0  0  0
 35 38  2  0  0  0
 35 39  1  0  0  0
 38 40  1  0  0  0
 39 41  2  0  0  0
 40 42  2  0  0  0
 41 42  1  0  0  0
M  END
>  <CHROM.0>
-54.26378756,-67.83210176,67.81555602

>  <CHROM.1>
168.55254145,-140.48962631,-159.81826356,60.76688831,70.75450678,-128.28218889
-70.30984442,-154.20583264,-0.36501965,-135.34724528,-146.30220221,28.03652464
161.39895467,62.57425938,-154.43642451,166.74799356,-48.44932054,-2.91839952
17.81280012,0.80260872,-0.15307055,-0.10881714

>  <HEADER>
                                                                          

>  <MASTER>
        0    0    0    0    0    0    0    0   77    0   77    0          

>  <Name>
Remdesivir.pdb

>  <RI>
-9.33821e+08

>  <Rbt.Current_Directory>
/root/miniconda3/envs/rdock/share/rxdock-2013.1.1_148c5bd1-0/data/ligands/prepped_ligands/Remdesivir

>  <Rbt.Executable>
rbdock/0.1.0

>  <Rbt.Library>
librxdock.so/0.1.0

>  <Rbt.Parameter_File>
/root/miniconda3/envs/rdock/share/rxdock-2013.1.1_148c5bd1-0/data/scripts/dock.prm

>  <Rbt.Receptor>
def.prm

>  <SCORE>
-19.4685

>  <SCORE.INTER>
-9.43255

>  <SCORE.INTER.CONST>
1

>  <SCORE.INTER.POLAR>
-1.32469

>  <SCORE.INTER.REPUL>
0.0378555

>  <SCORE.INTER.ROT>
14

>  <SCORE.INTER.VDW>
-24.5179

>  <SCORE.INTER.norm>
-0.224584

>  <SCORE.INTRA>
-9.2103

>  <SCORE.INTRA.DIHEDRAL>
-5.75887

>  <SCORE.INTRA.DIHEDRAL.0>
33.3194

>  <SCORE.INTRA.POLAR>
0

>  <SCORE.INTRA.POLAR.0>
0

>  <SCORE.INTRA.REPUL>
-0.188091

>  <SCORE.INTRA.REPUL.0>
0.188091

>  <SCORE.INTRA.VDW>
-5.39041

>  <SCORE.INTRA.VDW.0>
-0.0599272

>  <SCORE.INTRA.norm>
-0.219293

>  <SCORE.RESTR>
0.00174086

>  <SCORE.RESTR.CAVITY>
0.00174086

>  <SCORE.RESTR.norm>
4.14491e-05

>  <SCORE.SYSTEM>
-0.827413

>  <SCORE.SYSTEM.CONST>
0

>  <SCORE.SYSTEM.DIHEDRAL>
0.517508

>  <SCORE.SYSTEM.POLAR>
-0.0147032

>  <SCORE.SYSTEM.VDW>
-1.03618

>  <SCORE.SYSTEM.norm>
-0.0197003

>  <SCORE.heavy>
42

>  <SCORE.norm>
-0.463536

>  <TITLE>
    121304016_D                                                           

$$$$
Remdesivir.pdb
  RxDock  02242110013D
librxdock.so/0.1.0
 47 50  0  0  0  0  0  0  0  0999 V2000
  -46.9406   -0.5452   18.6874 P   0  0  0  0  0  0
  -51.5169   -1.3207   18.4576 O   0  0  0  0  0  0
  -50.7768   -4.3236   20.3027 O   0  0  0  0  0  0
  -50.0323   -2.0640   21.4188 O   0  0  0  0  0  0
  -48.2468    0.1442   19.3285 O   0  0  0  0  0  0
  -46.0886    0.7129   18.1433 O   0  0  0  0  0  0
  -46.1642   -1.2853   19.7451 O   0  0  0  0  0  0
  -47.5799   -0.7274   15.0600 O   0  0  0  0  0  0
  -45.3668   -0.3630   14.8984 O   0  0  0  0  0  0
  -52.5291   -4.7733   17.5368 N   0  0  0  0  0  0
  -52.3133   -5.7646   18.4524 N   0  0  0  0  0  0
  -47.3281   -1.5023   17.5916 N   0  0  0  0  0  0
  -53.7645   -2.6220   20.5769 N   0  0  0  0  0  0
  -53.0420   -7.4031   16.8654 N   0  0  0  0  0  0
  -53.7202   -6.7832   14.7390 N   0  0  0  0  0  0
  -51.8676   -2.6776   18.7859 C   0  0  0  0  0  0
  -50.5607   -3.2636   19.3583 C   0  0  0  0  0  0
  -49.8377   -2.0666   19.9966 C   0  0  0  0  0  0
  -50.5135   -0.8333   19.3681 C   0  0  0  0  0  0
  -52.3783   -3.4251   17.5599 C   0  0  0  0  0  0
  -49.5016    0.0613   18.6321 C   0  0  0  0  0  0
  -52.9389   -2.6452   19.7969 C   0  0  0  0  0  0
  -52.7355   -2.8796   16.3789 C   0  0  0  0  0  0
  -52.9952   -5.0584   16.2927 C   0  0  0  0  0  0
  -53.1375   -3.9307   15.5498 C   0  0  0  0  0  0
  -53.2494   -6.4198   15.9781 C   0  0  0  0  0  0
  -46.2186   -1.7874   16.6741 C   0  0  0  0  0  0
  -52.5717   -6.9981   18.0883 C   0  0  0  0  0  0
  -49.2619   -0.4132   13.2622 C   0  0  0  0  0  0
  -47.7814   -0.3147   13.6943 C   0  0  0  0  0  0
  -50.0419   -1.2627   14.2919 C   0  0  0  0  0  0
  -49.8844    1.0002   13.1674 C   0  0  0  0  0  0
  -46.3087   -0.8838   15.4667 C   0  0  0  0  0  0
  -46.3240   -3.2505   16.2152 C   0  0  0  0  0  0
  -44.7658    0.8787   18.4481 C   0  0  0  0  0  0
  -51.3288   -1.8577   13.6925 C   0  0  0  0  0  0
  -49.2785    1.8079   12.0040 C   0  0  0  0  0  0
  -43.9066   -0.2008   18.5476 C   0  0  0  0  0  0
  -44.2758    2.1532   18.6550 C   0  0  0  0  0  0
  -42.5799   -0.0061   18.8522 C   0  0  0  0  0  0
  -42.9490    2.3467   18.9611 C   0  0  0  0  0  0
  -42.1010    1.2680   19.0604 C   0  0  0  0  0  0
  -51.3264   -4.0106   21.0855 H   0  0  0  0  0  0
  -50.9956   -1.9014   21.6561 H   0  0  0  0  0  0
  -48.1233   -1.1214   17.0657 H   0  0  0  0  0  0
  -53.8710   -7.6315   14.5610 H   0  0  0  0  0  0
  -53.8717   -6.1733   14.1220 H   0  0  0  0  0  0
  1  5  1  0  0  0
  1  6  1  0  0  0
  1  7  2  0  0  0
  1 12  1  0  0  0
  2 16  1  0  0  0
  2 19  1  0  0  0
  3 17  1  0  0  0
  3 43  1  0  0  0
  4 18  1  0  0  0
  4 44  1  0  0  0
  5 21  1  0  0  0
  6 35  1  0  0  0
  8 30  1  0  0  0
  8 33  1  0  0  0
  9 33  2  0  0  0
 10 11  1  0  0  0
 10 20  1  0  0  0
 10 24  1  0  0  0
 11 28  2  0  0  0
 12 27  1  0  0  0
 12 45  1  0  0  0
 13 22  3  0  0  0
 14 26  2  0  0  0
 14 28  1  0  0  0
 15 26  1  0  0  0
 15 46  1  0  0  0
 15 47  1  0  0  0
 16 17  1  0  0  0
 16 20  1  0  0  0
 16 22  1  0  0  0
 17 18  1  0  0  0
 18 19  1  0  0  0
 19 21  1  0  0  0
 20 23  2  0  0  0
 23 25  1  0  0  0
 24 25  2  0  0  0
 24 26  1  0  0  0
 27 33  1  0  0  0
 27 34  1  0  0  0
 29 30  1  0  0  0
 29 31  1  0  0  0
 29 32  1  0  0  0
 31 36  1  0  0  0
 32 37  1  0  0  0
 35 38  2  0  0  0
 35 39  1  0  0  0
 38 40  1  0  0  0
 39 41  2  0  0  0
 40 42  2  0  0  0
 41 42  1  0  0  0
M  END
>  <CHROM.0>
-111.31123568,61.03796795,64.44836655

>  <CHROM.1>
105.74893043,129.29681417,159.62065142,-59.26661694,-66.08483650,111.10608001
36.48177079,169.63780622,20.68731433,-95.74305097,166.96090086,-157.57732000
-39.72408085,-14.46643282,-157.85701992,68.12791956,-49.08793181,-1.83494018
17.38378774,-0.06373016,0.59519311,1.77355559

>  <HEADER>
                                                                          

>  <MASTER>
        0    0    0    0    0    0    0    0   77    0   77    0          

>  <Name>
Remdesivir.pdb

>  <RI>
-9.33821e+08

>  <Rbt.Current_Directory>
/root/miniconda3/envs/rdock/share/rxdock-2013.1.1_148c5bd1-0/data/ligands/prepped_ligands/Remdesivir

>  <Rbt.Executable>
rbdock/0.1.0

>  <Rbt.Library>
librxdock.so/0.1.0

>  <Rbt.Parameter_File>
/root/miniconda3/envs/rdock/share/rxdock-2013.1.1_148c5bd1-0/data/scripts/dock.prm

>  <Rbt.Receptor>
def.prm

>  <SCORE>
-13.7596

>  <SCORE.INTER>
-8.89609

>  <SCORE.INTER.CONST>
1

>  <SCORE.INTER.POLAR>
-0.468622

>  <SCORE.INTER.REPUL>
0

>  <SCORE.INTER.ROT>
14

>  <SCORE.INTER.VDW>
-26.7028

>  <SCORE.INTER.norm>
-0.211812

>  <SCORE.INTRA>
-6.5528

>  <SCORE.INTRA.DIHEDRAL>
-4.5465

>  <SCORE.INTRA.DIHEDRAL.0>
33.3194

>  <SCORE.INTRA.POLAR>
-0.216983

>  <SCORE.INTRA.POLAR.0>
0

>  <SCORE.INTRA.REPUL>
-0.188091

>  <SCORE.INTRA.REPUL.0>
0.188091

>  <SCORE.INTRA.VDW>
-2.60135

>  <SCORE.INTRA.VDW.0>
-0.0599272

>  <SCORE.INTRA.norm>
-0.156019

>  <SCORE.RESTR>
0.318822

>  <SCORE.RESTR.CAVITY>
0.318822

>  <SCORE.RESTR.norm>
0.00759099

>  <SCORE.SYSTEM>
1.37044

>  <SCORE.SYSTEM.CONST>
0

>  <SCORE.SYSTEM.DIHEDRAL>
3.47347

>  <SCORE.SYSTEM.POLAR>
-0.0101071

>  <SCORE.SYSTEM.VDW>
-0.331937

>  <SCORE.SYSTEM.norm>
0.0326294

>  <SCORE.heavy>
42

>  <SCORE.norm>
-0.32761

>  <TITLE>
    121304016_D                                                           

$$$$
Remdesivir.pdb
  RxDock  02242110013D
librxdock.so/0.1.0
 47 50  0  0  0  0  0  0  0  0999 V2000
  -49.7621   -3.3836   17.8781 P   0  0  0  0  0  0
  -51.7698   -5.4224   20.0369 O   0  0  0  0  0  0
  -49.4090   -8.0956   19.5364 O   0  0  0  0  0  0
  -48.8782   -6.4327   21.5008 O   0  0  0  0  0  0
  -50.7939   -3.1002   19.0811 O   0  0  0  0  0  0
  -48.3939   -2.7027   18.3970 O   0  0  0  0  0  0
  -49.5702   -4.8657   17.6884 O   0  0  0  0  0  0
  -48.1127   -3.3063   15.1535 O   0  0  0  0  0  0
  -49.3534   -3.7309   13.3267 O   0  0  0  0  0  0
  -53.0032   -6.1724   17.6484 N   0  0  0  0  0  0
  -53.1537   -4.8199   17.7727 N   0  0  0  0  0  0
  -50.2627   -2.7769   16.5942 N   0  0  0  0  0  0
  -52.2108   -8.3930   21.5261 N   0  0  0  0  0  0
  -54.5416   -4.7847   15.8216 N   0  0  0  0  0  0
  -55.0187   -6.7334   14.6636 N   0  0  0  0  0  0
  -51.5167   -6.7714   19.6031 C   0  0  0  0  0  0
  -49.9939   -6.7960   19.3590 C   0  0  0  0  0  0
  -49.4188   -5.7695   20.3482 C   0  0  0  0  0  0
  -50.6308   -4.9094   20.7530 C   0  0  0  0  0  0
  -52.3327   -7.1117   18.3619 C   0  0  0  0  0  0
  -50.4112   -3.4219   20.4290 C   0  0  0  0  0  0
  -51.9092   -7.6863   20.6893 C   0  0  0  0  0  0
  -52.4978   -8.3367   17.8213 C   0  0  0  0  0  0
  -53.6001   -6.8534   16.6353 C   0  0  0  0  0  0
  -53.3183   -8.1801   16.7005 C   0  0  0  0  0  0
  -54.3842   -6.1115   15.7123 C   0  0  0  0  0  0
  -50.4010   -3.7670   15.5196 C   0  0  0  0  0  0
  -53.8931   -4.2039   16.8812 C   0  0  0  0  0  0
  -47.2040   -1.0452   14.6831 C   0  0  0  0  0  0
  -47.1429   -2.5617   14.3915 C   0  0  0  0  0  0
  -45.7756   -0.4554   14.6363 C   0  0  0  0  0  0
  -48.0995   -0.3375   13.6384 C   0  0  0  0  0  0
  -49.2653   -3.6147   14.5351 C   0  0  0  0  0  0
  -51.7324   -3.5201   14.7923 C   0  0  0  0  0  0
  -48.2219   -1.3463   18.4181 C   0  0  0  0  0  0
  -44.9230   -0.9132   15.8334 C   0  0  0  0  0  0
  -49.5949   -0.5725   13.9237 C   0  0  0  0  0  0
  -46.9612   -0.7785   18.4572 C   0  0  0  0  0  0
  -49.3320   -0.5251   18.3932 C   0  0  0  0  0  0
  -46.8161    0.5888   18.4744 C   0  0  0  0  0  0
  -49.1858    0.8423   18.4120 C   0  0  0  0  0  0
  -47.9287    1.3997   18.4532 C   0  0  0  0  0  0
  -49.5222   -8.4225   20.4815 H   0  0  0  0  0  0
  -49.5966   -6.9052   22.0217 H   0  0  0  0  0  0
  -49.6274   -2.0279   16.2955 H   0  0  0  0  0  0
  -55.5014   -6.2583   14.1021 H   0  0  0  0  0  0
  -54.9459   -7.6037   14.5499 H   0  0  0  0  0  0
  1  5  1  0  0  0
  1  6  1  0  0  0
  1  7  2  0  0  0
  1 12  1  0  0  0
  2 16  1  0  0  0
  2 19  1  0  0  0
  3 17  1  0  0  0
  3 43  1  0  0  0
  4 18  1  0  0  0
  4 44  1  0  0  0
  5 21  1  0  0  0
  6 35  1  0  0  0
  8 30  1  0  0  0
  8 33  1  0  0  0
  9 33  2  0  0  0
 10 11  1  0  0  0
 10 20  1  0  0  0
 10 24  1  0  0  0
 11 28  2  0  0  0
 12 27  1  0  0  0
 12 45  1  0  0  0
 13 22  3  0  0  0
 14 26  2  0  0  0
 14 28  1  0  0  0
 15 26  1  0  0  0
 15 46  1  0  0  0
 15 47  1  0  0  0
 16 17  1  0  0  0
 16 20  1  0  0  0
 16 22  1  0  0  0
 17 18  1  0  0  0
 18 19  1  0  0  0
 19 21  1  0  0  0
 20 23  2  0  0  0
 23 25  1  0  0  0
 24 25  2  0  0  0
 24 26  1  0  0  0
 27 33  1  0  0  0
 27 34  1  0  0  0
 29 30  1  0  0  0
 29 31  1  0  0  0
 29 32  1  0  0  0
 31 36  1  0  0  0
 32 37  1  0  0  0
 35 38  2  0  0  0
 35 39  1  0  0  0
 38 40  1  0  0  0
 39 41  2  0  0  0
 40 42  2  0  0  0
 41 42  1  0  0  0
M  END
>  <CHROM.0>
115.70170906,-66.76127574,-58.28849733

>  <CHROM.1>
-50.02746968,-74.05711154,-122.94836496,-62.17328815,-64.56815791,-82.47757821
-159.67303188,97.37356483,26.40740785,-104.42777193,11.10309666,-32.68886450
37.19087028,144.33649795,-70.53486136,76.57600173,-50.20576833,-3.97492861
17.43794294,-0.63691991,0.73881039,2.01990443

>  <HEADER>
                                                                          

>  <MASTER>
        0    0    0    0    0    0    0    0   77    0   77    0          

>  <Name>
Remdesivir.pdb

>  <RI>
-9.33821e+08

>  <Rbt.Current_Directory>
/root/miniconda3/envs/rdock/share/rxdock-2013.1.1_148c5bd1-0/data/ligands/prepped_ligands/Remdesivir

>  <Rbt.Executable>
rbdock/0.1.0

>  <Rbt.Library>
librxdock.so/0.1.0

>  <Rbt.Parameter_File>
/root/miniconda3/envs/rdock/share/rxdock-2013.1.1_148c5bd1-0/data/scripts/dock.prm

>  <Rbt.Receptor>
def.prm

>  <SCORE>
-10.1905

>  <SCORE.INTER>
-3.87722

>  <SCORE.INTER.CONST>
1

>  <SCORE.INTER.POLAR>
-0.00853545

>  <SCORE.INTER.REPUL>
0.262521

>  <SCORE.INTER.ROT>
14

>  <SCORE.INTER.VDW>
-24.5608

>  <SCORE.INTER.norm>
-0.0923147

>  <SCORE.INTRA>
-7.82024

>  <SCORE.INTRA.DIHEDRAL>
-6.24136

>  <SCORE.INTRA.DIHEDRAL.0>
33.3194

>  <SCORE.INTRA.POLAR>
0

>  <SCORE.INTRA.POLAR.0>
0

>  <SCORE.INTRA.REPUL>
0.0396126

>  <SCORE.INTRA.REPUL.0>
0.188091

>  <SCORE.INTRA.VDW>
-4.89762

>  <SCORE.INTRA.VDW.0>
-0.0599272

>  <SCORE.INTRA.norm>
-0.186196

>  <SCORE.RESTR>
0.00614124

>  <SCORE.RESTR.CAVITY>
0.00614124

>  <SCORE.RESTR.norm>
0.00014622

>  <SCORE.SYSTEM>
1.50086

>  <SCORE.SYSTEM.CONST>
0

>  <SCORE.SYSTEM.DIHEDRAL>
3.78056

>  <SCORE.SYSTEM.POLAR>
-0.00495166

>  <SCORE.SYSTEM.VDW>
-0.372582

>  <SCORE.SYSTEM.norm>
0.0357348

>  <SCORE.heavy>
42

>  <SCORE.norm>
-0.24263

>  <TITLE>
    121304016_D                                                           

$$$$
Remdesivir.pdb
  RxDock  02242110013D
librxdock.so/0.1.0
 47 50  0  0  0  0  0  0  0  0999 V2000
  -50.4691   -1.6926   16.0052 P   0  0  0  0  0  0
  -51.3494   -5.2223   15.5547 O   0  0  0  0  0  0
  -52.7179   -4.8578   18.8659 O   0  0  0  0  0  0
  -54.2628   -4.0933   16.8823 O   0  0  0  0  0  0
  -51.7736   -1.9139   15.0877 O   0  0  0  0  0  0
  -51.0816   -1.1302   17.3884 O   0  0  0  0  0  0
  -49.7631   -3.0025   16.2395 O   0  0  0  0  0  0
  -46.3389   -0.5698   17.0979 O   0  0  0  0  0  0
  -48.2888    0.4783   17.4931 O   0  0  0  0  0  0
  -49.7571   -6.2983   18.7276 N   0  0  0  0  0  0
  -50.4921   -6.1827   19.8738 N   0  0  0  0  0  0
  -49.5190   -0.7232   15.3535 N   0  0  0  0  0  0
  -53.0076   -7.7482   17.0061 N   0  0  0  0  0  0
  -48.5850   -6.8222   21.1733 N   0  0  0  0  0  0
  -46.5608   -7.3100   20.1582 N   0  0  0  0  0  0
  -51.4103   -5.6868   16.9158 C   0  0  0  0  0  0
  -51.9899   -4.4828   17.6862 C   0  0  0  0  0  0
  -52.8840   -3.7563   16.6685 C   0  0  0  0  0  0
  -52.4155   -4.2883   15.3010 C   0  0  0  0  0  0
  -50.0346   -6.1155   17.4121 C   0  0  0  0  0  0
  -51.9354   -3.1543   14.3793 C   0  0  0  0  0  0
  -52.3120   -6.8509   16.9657 C   0  0  0  0  0  0
  -48.9482   -6.3619   16.6512 C   0  0  0  0  0  0
  -48.4505   -6.6693   18.7678 C   0  0  0  0  0  0
  -47.9150   -6.7222   17.5211 C   0  0  0  0  0  0
  -47.8770   -6.9319   20.0403 C   0  0  0  0  0  0
  -48.1124   -1.0523   15.6133 C   0  0  0  0  0  0
  -49.8927   -6.4422   21.0115 C   0  0  0  0  0  0
  -44.2167   -0.1480   18.3137 C   0  0  0  0  0  0
  -45.7112    0.2043   18.1385 C   0  0  0  0  0  0
  -43.5859    0.7974   19.3619 C   0  0  0  0  0  0
  -44.0661   -1.6178   18.7732 C   0  0  0  0  0  0
  -47.6235   -0.2882   16.8214 C   0  0  0  0  0  0
  -47.2779   -0.6432   14.3890 C   0  0  0  0  0  0
  -50.8553   -1.7499   18.5862 C   0  0  0  0  0  0
  -43.1375    2.1319   18.7394 C   0  0  0  0  0  0
  -43.8700   -2.5671   17.5760 C   0  0  0  0  0  0
  -49.6716   -2.4187   18.8413 C   0  0  0  0  0  0
  -51.8281   -1.7012   19.5653 C   0  0  0  0  0  0
  -49.4682   -3.0307   20.0558 C   0  0  0  0  0  0
  -51.6242   -2.3149   20.7791 C   0  0  0  0  0  0
  -50.4452   -2.9801   21.0246 C   0  0  0  0  0  0
  -53.4013   -5.5686   18.6644 H   0  0  0  0  0  0
  -54.6427   -3.5978   17.6703 H   0  0  0  0  0  0
  -49.7183    0.2289   15.6815 H   0  0  0  0  0  0
  -46.2217   -7.4676   20.9545 H   0  0  0  0  0  0
  -46.0546   -7.3955   19.4426 H   0  0  0  0  0  0
  1  5  1  0  0  0
  1  6  1  0  0  0
  1  7  2  0  0  0
  1 12  1  0  0  0
  2 16  1  0  0  0
  2 19  1  0  0  0
  3 17  1  0  0  0
  3 43  1  0  0  0
  4 18  1  0  0  0
  4 44  1  0  0  0
  5 21  1  0  0  0
  6 35  1  0  0  0
  8 30  1  0  0  0
  8 33  1  0  0  0
  9 33  2  0  0  0
 10 11  1  0  0  0
 10 20  1  0  0  0
 10 24  1  0  0  0
 11 28  2  0  0  0
 12 27  1  0  0  0
 12 45  1  0  0  0
 13 22  3  0  0  0
 14 26  2  0  0  0
 14 28  1  0  0  0
 15 26  1  0  0  0
 15 46  1  0  0  0
 15 47  1  0  0  0
 16 17  1  0  0  0
 16 20  1  0  0  0
 16 22  1  0  0  0
 17 18  1  0  0  0
 18 19  1  0  0  0
 19 21  1  0  0  0
 20 23  2  0  0  0
 23 25  1  0  0  0
 24 25  2  0  0  0
 24 26  1  0  0  0
 27 33  1  0  0  0
 27 34  1  0  0  0
 29 30  1  0  0  0
 29 31  1  0  0  0
 29 32  1  0  0  0
 31 36  1  0  0  0
 32 37  1  0  0  0
 35 38  2  0  0  0
 35 39  1  0  0  0
 38 40  1  0  0  0
 39 41  2  0  0  0
 40 42  2  0  0  0
 41 42  1  0  0  0
M  END
>  <CHROM.0>
48.63740883,-56.25824474,144.48478479

>  <CHROM.1>
-132.04253958,123.00771182,-145.37864602,-50.76166358,77.21060535,77.72713244
32.19069828,-176.68122097,-7.55602240,-93.55450221,164.50299619,-107.23432830
179.58546035,175.44316452,-84.34374060,93.22129278,-49.34826968,-3.26718894
17.73730770,0.57719408,-0.41418885,-0.51526429

>  <HEADER>
                                                                          

>  <MASTER>
        0    0    0    0    0    0    0    0   77    0   77    0          

>  <Name>
Remdesivir.pdb

>  <RI>
-9.33821e+08

>  <Rbt.Current_Directory>
/root/miniconda3/envs/rdock/share/rxdock-2013.1.1_148c5bd1-0/data/ligands/prepped_ligands/Remdesivir

>  <Rbt.Executable>
rbdock/0.1.0

>  <Rbt.Library>
librxdock.so/0.1.0

>  <Rbt.Parameter_File>
/root/miniconda3/envs/rdock/share/rxdock-2013.1.1_148c5bd1-0/data/scripts/dock.prm

>  <Rbt.Receptor>
def.prm

>  <SCORE>
-15.7613

>  <SCORE.INTER>
-5.1996

>  <SCORE.INTER.CONST>
1

>  <SCORE.INTER.POLAR>
-0.815504

>  <SCORE.INTER.REPUL>
0.00369619

>  <SCORE.INTER.ROT>
14

>  <SCORE.INTER.VDW>
-21.8454

>  <SCORE.INTER.norm>
-0.1238

>  <SCORE.INTRA>
-12.1256

>  <SCORE.INTRA.DIHEDRAL>
-8.67401

>  <SCORE.INTRA.DIHEDRAL.0>
33.3194

>  <SCORE.INTRA.POLAR>
0

>  <SCORE.INTRA.POLAR.0>
0

>  <SCORE.INTRA.REPUL>
-0.188091

>  <SCORE.INTRA.REPUL.0>
0.188091

>  <SCORE.INTRA.VDW>
-6.84814

>  <SCORE.INTRA.VDW.0>
-0.0599272

>  <SCORE.INTRA.norm>
-0.288705

>  <SCORE.RESTR>
0.862915

>  <SCORE.RESTR.CAVITY>
0.862915

>  <SCORE.RESTR.norm>
0.0205456

>  <SCORE.SYSTEM>
0.700982

>  <SCORE.SYSTEM.CONST>
0

>  <SCORE.SYSTEM.DIHEDRAL>
2.71363

>  <SCORE.SYSTEM.VDW>
-0.655835

>  <SCORE.SYSTEM.norm>
0.01669

>  <SCORE.heavy>
42

>  <SCORE.norm>
-0.375269

>  <TITLE>
    121304016_D                                                           

$$$$
