Remdesivir.pdb
 OpenBabel02182114013D

 77 80  0  0  1  0  0  0  0  0999 V2000
    9.9260   -0.2770   21.7330 P   0  0  1  0  0  0  0  0  0  0  0  0
    8.9610   -4.7000   23.8460 O   0  0  0  0  0  0  0  0  0  0  0  0
    7.8300   -4.4790   27.2580 O   0  0  0  0  0  0  0  0  0  0  0  0
    7.0190   -2.5720   25.6420 O   0  0  0  0  0  0  0  0  0  0  0  0
    9.0090   -1.4370   22.3700 O   0  0  0  0  0  0  0  0  0  0  0  0
   10.0570    0.7920   22.9350 O   0  0  0  0  0  0  0  0  0  0  0  0
   11.2820   -0.8210   21.3660 O   0  0  0  0  0  0  0  0  0  0  0  0
   11.0700    2.2840   20.1410 O   0  0  0  0  0  0  0  0  0  0  0  0
   10.6920    2.1740   17.9270 O   0  0  0  0  0  0  0  0  0  0  0  0
    9.9820   -7.3600   24.3370 N   0  0  0  0  0  0  0  0  0  0  0  0
    9.8210   -7.3730   22.9800 N   0  0  0  0  0  0  0  0  0  0  0  0
    9.2730    0.3040   20.5070 N   0  0  0  0  0  0  0  0  0  0  0  0
    6.1520   -6.2490   24.8190 N   0  0  0  0  0  0  0  0  0  0  0  0
   11.2310   -9.3020   22.8210 N   0  0  0  0  0  0  0  0  0  0  0  0
   12.1710  -10.2500   24.7140 N   0  0  0  0  0  0  0  0  0  0  0  0
    8.5980   -5.3740   25.0650 C   0  0  2  0  0  0  0  0  0  0  0  0
    8.7030   -4.2700   26.1370 C   0  0  1  0  0  0  0  0  0  0  0  0
    8.3770   -2.9650   25.3930 C   0  0  1  0  0  0  0  0  0  0  0  0
    8.5610   -3.3180   23.9050 C   0  0  1  0  0  0  0  0  0  0  0  0
    9.5150   -6.5620   25.3300 C   0  0  0  0  0  0  0  0  0  0  0  0
    9.6110   -2.4200   23.2290 C   0  0  0  0  0  0  0  0  0  0  0  0
    7.2170   -5.8680   24.9250 C   0  0  0  0  0  0  0  0  0  0  0  0
    9.9710   -6.9710   26.5320 C   0  0  0  0  0  0  0  0  0  0  0  0
   10.7510   -8.2910   24.9600 C   0  0  0  0  0  0  0  0  0  0  0  0
   10.7740   -8.0920   26.3030 C   0  0  0  0  0  0  0  0  0  0  0  0
   11.3800   -9.2760   24.1530 C   0  0  0  0  0  0  0  0  0  0  0  0
   10.1490    0.2650   19.3300 C   0  0  2  0  0  0  0  0  0  0  0  0
   10.4340   -8.3140   22.3020 C   0  0  0  0  0  0  0  0  0  0  0  0
   11.1610    4.5010   21.2530 C   0  0  0  0  0  0  0  0  0  0  0  0
   11.4830    3.6570   19.9990 C   0  0  0  0  0  0  0  0  0  0  0  0
   12.2130    4.2140   22.3490 C   0  0  0  0  0  0  0  0  0  0  0  0
   11.1690    6.0070   20.8980 C   0  0  0  0  0  0  0  0  0  0  0  0
   10.6600    1.6540   19.0270 C   0  0  0  0  0  0  0  0  0  0  0  0
    9.3360   -0.2440   18.1290 C   0  0  0  0  0  0  0  0  0  0  0  0
    9.0610    0.9750   23.8540 C   0  0  0  0  0  0  0  0  0  0  0  0
   11.5600    3.8910   23.7050 C   0  0  0  0  0  0  0  0  0  0  0  0
   12.4520    6.4030   20.1430 C   0  0  0  0  0  0  0  0  0  0  0  0
    7.9530    1.7540   23.5730 C   0  0  0  0  0  0  0  0  0  0  0  0
    9.1610    0.3630   25.0880 C   0  0  0  0  0  0  0  0  0  0  0  0
    6.9640    1.9190   24.5140 C   0  0  0  0  0  0  0  0  0  0  0  0
    8.1720    0.5300   26.0290 C   0  0  0  0  0  0  0  0  0  0  0  0
    7.0740    1.3080   25.7430 C   0  0  0  0  0  0  0  0  0  0  0  0
    9.6160   -4.2570   26.5470 H   0  0  0  0  0  0  0  0  0  0  0  0
    8.9580   -2.2040   25.6840 H   0  0  0  0  0  0  0  0  0  0  0  0
    7.7050   -3.1700   23.4110 H   0  0  0  0  0  0  0  0  0  0  0  0
   10.9250   -0.3400   19.5070 H   0  0  0  0  0  0  0  0  0  0  0  0
    7.5200   -3.6050   27.6490 H   0  0  0  0  0  0  0  0  0  0  0  0
    6.8610   -2.4010   26.6200 H   0  0  0  0  0  0  0  0  0  0  0  0
    8.9870    1.2720   20.6940 H   0  0  0  0  0  0  0  0  0  0  0  0
   12.5520  -10.8530   24.1990 H   0  0  0  0  0  0  0  0  0  0  0  0
   12.2990  -10.2750   25.5850 H   0  0  0  0  0  0  0  0  0  0  0  0
   10.1420   -1.9510   23.9360 H   0  0  0  0  0  0  0  0  0  0  0  0
   10.1980   -3.0030   22.6670 H   0  0  0  0  0  0  0  0  0  0  0  0
    9.7730   -6.5520   27.4180 H   0  0  0  0  0  0  0  0  0  0  0  0
   11.2630   -8.6350   26.9860 H   0  0  0  0  0  0  0  0  0  0  0  0
   10.3070   -8.3110   21.3100 H   0  0  0  0  0  0  0  0  0  0  0  0
   10.2520    4.2560   21.5890 H   0  0  0  0  0  0  0  0  0  0  0  0
   11.0140    4.0550   19.2110 H   0  0  0  0  0  0  0  0  0  0  0  0
   12.4750    3.6650   19.8740 H   0  0  0  0  0  0  0  0  0  0  0  0
   12.8000    5.0170   22.4530 H   0  0  0  0  0  0  0  0  0  0  0  0
   12.7450    3.4160   22.0650 H   0  0  0  0  0  0  0  0  0  0  0  0
   11.1080    6.5410   21.7420 H   0  0  0  0  0  0  0  0  0  0  0  0
   10.3870    6.1930   20.3030 H   0  0  0  0  0  0  0  0  0  0  0  0
    9.3290    0.4590   17.4190 H   0  0  0  0  0  0  0  0  0  0  0  0
    9.7500   -1.0810   17.7720 H   0  0  0  0  0  0  0  0  0  0  0  0
    8.3990   -0.4420   18.4170 H   0  0  0  0  0  0  0  0  0  0  0  0
   10.5660    3.9310   23.6050 H   0  0  0  0  0  0  0  0  0  0  0  0
   11.8330    2.9750   24.0010 H   0  0  0  0  0  0  0  0  0  0  0  0
   11.8590    4.5560   24.3900 H   0  0  0  0  0  0  0  0  0  0  0  0
   13.0280    5.5930   20.0340 H   0  0  0  0  0  0  0  0  0  0  0  0
   12.2150    6.7720   19.2450 H   0  0  0  0  0  0  0  0  0  0  0  0
   12.9450    7.1010   20.6620 H   0  0  0  0  0  0  0  0  0  0  0  0
    7.8710    2.1990   22.6810 H   0  0  0  0  0  0  0  0  0  0  0  0
    9.9570   -0.2050   25.2980 H   0  0  0  0  0  0  0  0  0  0  0  0
    6.1650    2.4830   24.3060 H   0  0  0  0  0  0  0  0  0  0  0  0
    8.2520    0.0860   26.9210 H   0  0  0  0  0  0  0  0  0  0  0  0
    6.3550    1.4300   26.4270 H   0  0  0  0  0  0  0  0  0  0  0  0
  1  5  1  0  0  0  0
  1  6  1  0  0  0  0
  1  7  2  6  0  0  0
  1 12  1  0  0  0  0
  2 16  1  0  0  0  0
  2 19  1  0  0  0  0
  3 17  1  0  0  0  0
  3 47  1  0  0  0  0
  4 18  1  0  0  0  0
  4 48  1  0  0  0  0
  5 21  1  0  0  0  0
  6 35  1  0  0  0  0
  8 30  1  0  0  0  0
  8 33  1  0  0  0  0
  9 33  2  0  0  0  0
 10 11  1  0  0  0  0
 10 20  1  0  0  0  0
 10 24  1  0  0  0  0
 11 28  2  0  0  0  0
 12 27  1  0  0  0  0
 12 49  1  0  0  0  0
 13 22  3  0  0  0  0
 14 26  2  0  0  0  0
 14 28  1  0  0  0  0
 15 26  1  0  0  0  0
 15 50  1  0  0  0  0
 15 51  1  0  0  0  0
 16 17  1  1  0  0  0
 16 20  1  0  0  0  0
 16 22  1  0  0  0  0
 17 18  1  6  0  0  0
 17 43  1  0  0  0  0
 18 19  1  6  0  0  0
 18 44  1  0  0  0  0
 19 21  1  0  0  0  0
 19 45  1  6  0  0  0
 20 23  2  0  0  0  0
 21 52  1  0  0  0  0
 21 53  1  0  0  0  0
 23 25  1  0  0  0  0
 23 54  1  0  0  0  0
 24 25  2  0  0  0  0
 24 26  1  0  0  0  0
 25 55  1  0  0  0  0
 27 33  1  0  0  0  0
 27 34  1  0  0  0  0
 27 46  1  1  0  0  0
 28 56  1  0  0  0  0
 29 30  1  0  0  0  0
 29 31  1  0  0  0  0
 29 32  1  0  0  0  0
 29 57  1  0  0  0  0
 30 58  1  0  0  0  0
 30 59  1  0  0  0  0
 31 36  1  0  0  0  0
 31 60  1  0  0  0  0
 31 61  1  0  0  0  0
 32 37  1  0  0  0  0
 32 62  1  0  0  0  0
 32 63  1  0  0  0  0
 34 64  1  0  0  0  0
 34 65  1  0  0  0  0
 34 66  1  0  0  0  0
 35 38  2  0  0  0  0
 35 39  1  0  0  0  0
 36 67  1  0  0  0  0
 36 68  1  0  0  0  0
 36 69  1  0  0  0  0
 37 70  1  0  0  0  0
 37 71  1  0  0  0  0
 37 72  1  0  0  0  0
 38 40  1  0  0  0  0
 38 73  1  0  0  0  0
 39 41  2  0  0  0  0
 39 74  1  0  0  0  0
 40 42  2  0  0  0  0
 40 75  1  0  0  0  0
 41 42  1  0  0  0  0
 41 76  1  0  0  0  0
 42 77  1  0  0  0  0
M  END
>  <HEADER>
                                                                          

>  <TITLE>
    121304016_D                                                           

>  <MASTER>
        0    0    0    0    0    0    0    0   77    0   77    0          

$$$$
