MODEL 1
REMARK VINA RESULT:      -5.7      0.000      0.000
REMARK  13 active torsions:
REMARK  status: ('A' for Active; 'I' for Inactive)
REMARK    1  A    between atoms: C_5  and  N_6 
REMARK    2  A    between atoms: C_9  and  N_10 
REMARK    3  A    between atoms: N_10  and  C_11 
REMARK    4  A    between atoms: C_11  and  C_12 
REMARK    5  A    between atoms: C_12  and  C_13 
REMARK    6  A    between atoms: C_13  and  C_14 
REMARK    7  A    between atoms: C_14  and  C_15 
REMARK    8  A    between atoms: C_15  and  C_16 
REMARK    9  A    between atoms: C_16  and  N_17 
REMARK       I    between atoms: N_17  and  C_18 
REMARK   10  A    between atoms: C_18  and  C_20 
REMARK   11  A    between atoms: C_25  and  N_26 
REMARK       I    between atoms: N_26  and  C_27 
REMARK   12  A    between atoms: C_27  and  C_29 
REMARK   13  A    between atoms: C_29  and  C_30 
ROOT
HETATM    1  O   MOL     1     -52.236   1.817  20.419  1.00 -0.03    -0.273 OA
HETATM    2  C   MOL     1     -51.021   1.744  20.484  1.00 -0.41     0.224 C 
HETATM    3  C   MOL     1     -50.333   0.646  21.264  1.00 -0.27     0.106 C 
HETATM    4  C   MOL     1     -48.980   0.269  20.653  1.00 -0.23     0.044 C 
HETATM    5  C   MOL     1     -48.158   1.561  20.635  1.00 -0.30     0.180 C 
HETATM    6  C   MOL     1     -48.846   2.646  19.836  1.00 -0.49     0.247 C 
HETATM    7  O   MOL     1     -48.212   3.479  19.211  1.00 -0.12    -0.271 OA
HETATM    8  N   MOL     1     -50.198   2.623  19.866  1.00 -0.04    -0.296 N 
HETATM    9  HN  MOL     1     -50.598   3.262  19.411  1.00 -0.27     0.171 HD
ENDROOT
BRANCH   5  10
HETATM   10  N   MOL     1     -46.798   1.308  20.136  1.00  0.05    -0.337 N 
HETATM   11  C   MOL     1     -46.524   0.371  19.033  1.00 -0.25     0.138 C 
HETATM   12  C   MOL     1     -45.098   0.071  19.529  1.00 -0.27     0.070 C 
HETATM   13  C   MOL     1     -44.095  -0.774  18.772  1.00 -0.20     0.011 C 
HETATM   14  C   MOL     1     -44.531   1.449  19.880  1.00 -0.40     0.112 C 
HETATM   15  C   MOL     1     -42.790  -0.653  19.063  1.00 -0.28     0.025 C 
HETATM   16  C   MOL     1     -42.351   0.289  20.093  1.00 -0.47    -0.001 C 
HETATM   17  C   MOL     1     -43.160   1.275  20.481  1.00 -0.52    -0.012 C 
HETATM   18  C   MOL     1     -45.722   1.905  20.673  1.00 -0.44     0.229 C 
HETATM   19  O   MOL     1     -45.707   2.672  21.626  1.00 -0.63    -0.273 OA
BRANCH  13  20
HETATM   20  N   MOL     1     -44.662  -1.620  17.864  1.00  0.04    -0.393 N 
HETATM   21  HN  MOL     1     -45.449  -1.968  18.051  1.00 -0.01     0.159 HD
BRANCH  20  22
HETATM   22  C   MOL     1     -44.252  -1.570  16.453  1.00 -0.24     0.119 C 
BRANCH  22  23
HETATM   23  C   MOL     1     -45.395  -1.824  15.458  1.00 -0.09     0.020 C 
BRANCH  23  24
HETATM   24  C   MOL     1     -46.345  -0.618  15.504  1.00 -0.19     0.002 C 
BRANCH  24  25
HETATM   25  C   MOL     1     -47.792  -1.084  15.729  1.00 -0.35     0.002 C 
BRANCH  25  26
HETATM   26  C   MOL     1     -48.139  -2.122  14.652  1.00 -0.42     0.020 C 
BRANCH  26  27
HETATM   27  C   MOL     1     -49.424  -1.714  13.919  1.00 -0.29     0.123 C 
BRANCH  27  28
HETATM   28  N   MOL     1     -49.876  -0.421  14.454  1.00 -0.04    -0.357 N 
HETATM   29  C   MOL     1     -51.197  -0.178  14.603  1.00 -0.29     0.254 C 
HETATM   30  O   MOL     1     -52.062  -1.000  14.309  1.00 -0.19    -0.268 OA
HETATM   31  HN  MOL     1     -49.280   0.179  14.692  1.00 -0.09     0.162 HD
BRANCH  29  32
HETATM   32  C   MOL     1     -51.664   1.135  15.131  1.00 -0.21     0.061 A 
HETATM   33  C   MOL     1     -51.856   2.210  14.284  1.00 -0.36     0.038 A 
HETATM   34  C   MOL     1     -52.310   3.410  14.768  1.00 -0.38     0.117 A 
HETATM   35  N   MOL     1     -52.596   3.634  16.064  1.00 -0.12    -0.271 NA
HETATM   36  C   MOL     1     -52.408   2.587  16.884  1.00 -0.27     0.146 A 
HETATM   37  C   MOL     1     -51.950   1.346  16.477  1.00 -0.14     0.068 A 
BRANCH  37  38
HETATM   38  N   MOL     1     -51.768   0.324  17.417  1.00  0.07    -0.325 N 
HETATM   39  C   MOL     1     -52.723  -0.512  17.872  1.00 -0.29     0.226 C 
HETATM   40  O   MOL     1     -53.888  -0.509  17.500  1.00 -0.10    -0.273 OA
HETATM   41  HN  MOL     1     -50.955   0.220  17.733  1.00  0.05     0.169 HD
BRANCH  39  42
HETATM   42  C   MOL     1     -52.207  -1.507  18.893  1.00 -0.34     0.141 C 
BRANCH  42  43
HETATM   43  C   MOL     1     -51.263  -2.497  18.236  1.00 -0.21    -0.048 A 
HETATM   44  C   MOL     1     -49.998  -2.688  18.745  1.00 -0.31     0.007 A 
HETATM   45  C   MOL     1     -49.142  -3.587  18.149  1.00 -0.36     0.002 A 
HETATM   46  C   MOL     1     -49.549  -4.297  17.043  1.00 -0.30     0.024 A 
HETATM   47  C   MOL     1     -50.815  -4.109  16.533  1.00 -0.25     0.034 A 
HETATM   48 CL   MOL     1     -51.332  -5.006  15.135  1.00 -0.85    -0.084 Cl
HETATM   49  C   MOL     1     -51.670  -3.209  17.130  1.00 -0.22     0.031 A 
ENDBRANCH  42  43
ENDBRANCH  39  42
ENDBRANCH  37  38
ENDBRANCH  29  32
ENDBRANCH  27  28
ENDBRANCH  26  27
ENDBRANCH  25  26
ENDBRANCH  24  25
ENDBRANCH  23  24
ENDBRANCH  22  23
ENDBRANCH  20  22
ENDBRANCH  13  20
ENDBRANCH   5  10
TORSDOF 13
ENDMDL
MODEL 2
REMARK VINA RESULT:      -5.1      2.742      3.831
REMARK  13 active torsions:
REMARK  status: ('A' for Active; 'I' for Inactive)
REMARK    1  A    between atoms: C_5  and  N_6 
REMARK    2  A    between atoms: C_9  and  N_10 
REMARK    3  A    between atoms: N_10  and  C_11 
REMARK    4  A    between atoms: C_11  and  C_12 
REMARK    5  A    between atoms: C_12  and  C_13 
REMARK    6  A    between atoms: C_13  and  C_14 
REMARK    7  A    between atoms: C_14  and  C_15 
REMARK    8  A    between atoms: C_15  and  C_16 
REMARK    9  A    between atoms: C_16  and  N_17 
REMARK       I    between atoms: N_17  and  C_18 
REMARK   10  A    between atoms: C_18  and  C_20 
REMARK   11  A    between atoms: C_25  and  N_26 
REMARK       I    between atoms: N_26  and  C_27 
REMARK   12  A    between atoms: C_27  and  C_29 
REMARK   13  A    between atoms: C_29  and  C_30 
ROOT
HETATM    1  O   MOL     1     -52.075   2.749  20.239  1.00 -0.03    -0.273 OA
HETATM    2  C   MOL     1     -50.929   2.335  20.226  1.00 -0.41     0.224 C 
HETATM    3  C   MOL     1     -50.588   0.933  20.678  1.00 -0.27     0.106 C 
HETATM    4  C   MOL     1     -49.378   0.366  19.930  1.00 -0.23     0.044 C 
HETATM    5  C   MOL     1     -48.232   1.349  20.191  1.00 -0.30     0.180 C 
HETATM    6  C   MOL     1     -48.577   2.744  19.718  1.00 -0.49     0.247 C 
HETATM    7  O   MOL     1     -47.723   3.501  19.287  1.00 -0.12    -0.271 OA
HETATM    8  N   MOL     1     -49.883   3.081  19.805  1.00 -0.04    -0.296 N 
HETATM    9  HN  MOL     1     -50.082   3.898  19.541  1.00 -0.27     0.171 HD
ENDROOT
BRANCH   5  10
HETATM   10  N   MOL     1     -46.982   0.868  19.582  1.00  0.05    -0.337 N 
HETATM   11  C   MOL     1     -46.936   0.297  18.225  1.00 -0.25     0.138 C 
HETATM   12  C   MOL     1     -45.699  -0.565  18.538  1.00 -0.27     0.070 C 
HETATM   13  C   MOL     1     -44.952  -1.385  17.508  1.00 -0.20     0.011 C 
HETATM   14  C   MOL     1     -44.766   0.388  19.292  1.00 -0.40     0.112 C 
HETATM   15  C   MOL     1     -43.691  -1.766  17.768  1.00 -0.28     0.025 C 
HETATM   16  C   MOL     1     -43.053  -1.383  19.029  1.00 -0.47    -0.001 C 
HETATM   17  C   MOL     1     -43.550  -0.377  19.747  1.00 -0.52    -0.012 C 
HETATM   18  C   MOL     1     -45.812   0.906  20.238  1.00 -0.44     0.229 C 
HETATM   19  O   MOL     1     -45.625   1.284  21.386  1.00 -0.63    -0.273 OA
BRANCH  13  20
HETATM   20  N   MOL     1     -45.690  -1.682  16.399  1.00  0.04    -0.393 N 
HETATM   21  HN  MOL     1     -45.455  -1.319  15.631  1.00 -0.01     0.159 HD
BRANCH  20  22
HETATM   22  C   MOL     1     -46.503  -2.905  16.360  1.00 -0.24     0.119 C 
BRANCH  22  23
HETATM   23  C   MOL     1     -48.013  -2.653  16.222  1.00 -0.09     0.020 C 
BRANCH  23  24
HETATM   24  C   MOL     1     -48.282  -2.141  14.799  1.00 -0.19     0.002 C 
BRANCH  24  25
HETATM   25  C   MOL     1     -48.481  -0.618  14.806  1.00 -0.35     0.002 C 
BRANCH  25  26
HETATM   26  C   MOL     1     -49.567  -0.267  13.779  1.00 -0.42     0.020 C 
BRANCH  26  27
HETATM   27  C   MOL     1     -50.878   0.083  14.497  1.00 -0.29     0.123 C 
BRANCH  27  28
HETATM   28  N   MOL     1     -51.847  -0.995  14.251  1.00 -0.04    -0.357 N 
HETATM   29  C   MOL     1     -52.243  -1.791  15.270  1.00 -0.29     0.254 C 
HETATM   30  O   MOL     1     -51.826  -1.659  16.418  1.00 -0.19    -0.268 OA
HETATM   31  HN  MOL     1     -52.179  -1.102  13.444  1.00 -0.09     0.162 HD
BRANCH  29  32
HETATM   32  C   MOL     1     -53.214  -2.895  15.026  1.00 -0.21     0.061 A 
HETATM   33  C   MOL     1     -54.203  -2.768  14.071  1.00 -0.36     0.038 A 
HETATM   34  C   MOL     1     -55.080  -3.795  13.831  1.00 -0.38     0.117 A 
HETATM   35  N   MOL     1     -55.050  -4.972  14.483  1.00 -0.12    -0.271 NA
HETATM   36  C   MOL     1     -54.087  -5.092  15.411  1.00 -0.27     0.146 A 
HETATM   37  C   MOL     1     -53.167  -4.103  15.717  1.00 -0.14     0.068 A 
BRANCH  37  38
HETATM   38  N   MOL     1     -52.212  -4.321  16.717  1.00  0.07    -0.325 N 
HETATM   39  C   MOL     1     -51.012  -4.912  16.552  1.00 -0.29     0.226 C 
HETATM   40  O   MOL     1     -50.577  -5.319  15.484  1.00 -0.10    -0.273 OA
HETATM   41  HN  MOL     1     -52.418  -4.042  17.525  1.00  0.05     0.169 HD
BRANCH  39  42
HETATM   42  C   MOL     1     -50.211  -5.004  17.835  1.00 -0.34     0.141 C 
BRANCH  42  43
HETATM   43  C   MOL     1     -49.699  -6.418  18.039  1.00 -0.21    -0.048 A 
HETATM   44  C   MOL     1     -50.575  -7.480  18.022  1.00 -0.31     0.007 A 
HETATM   45  C   MOL     1     -50.111  -8.763  18.206  1.00 -0.36     0.002 A 
HETATM   46  C   MOL     1     -48.768  -8.987  18.407  1.00 -0.30     0.024 A 
HETATM   47  C   MOL     1     -47.889  -7.927  18.422  1.00 -0.25     0.034 A 
HETATM   48 CL   MOL     1     -46.191  -8.208  18.676  1.00 -0.85    -0.084 Cl
HETATM   49  C   MOL     1     -48.355  -6.644  18.238  1.00 -0.22     0.031 A 
ENDBRANCH  42  43
ENDBRANCH  39  42
ENDBRANCH  37  38
ENDBRANCH  29  32
ENDBRANCH  27  28
ENDBRANCH  26  27
ENDBRANCH  25  26
ENDBRANCH  24  25
ENDBRANCH  23  24
ENDBRANCH  22  23
ENDBRANCH  20  22
ENDBRANCH  13  20
ENDBRANCH   5  10
TORSDOF 13
ENDMDL
MODEL 3
REMARK VINA RESULT:      -5.0      2.497      5.231
REMARK  13 active torsions:
REMARK  status: ('A' for Active; 'I' for Inactive)
REMARK    1  A    between atoms: C_5  and  N_6 
REMARK    2  A    between atoms: C_9  and  N_10 
REMARK    3  A    between atoms: N_10  and  C_11 
REMARK    4  A    between atoms: C_11  and  C_12 
REMARK    5  A    between atoms: C_12  and  C_13 
REMARK    6  A    between atoms: C_13  and  C_14 
REMARK    7  A    between atoms: C_14  and  C_15 
REMARK    8  A    between atoms: C_15  and  C_16 
REMARK    9  A    between atoms: C_16  and  N_17 
REMARK       I    between atoms: N_17  and  C_18 
REMARK   10  A    between atoms: C_18  and  C_20 
REMARK   11  A    between atoms: C_25  and  N_26 
REMARK       I    between atoms: N_26  and  C_27 
REMARK   12  A    between atoms: C_27  and  C_29 
REMARK   13  A    between atoms: C_29  and  C_30 
ROOT
HETATM    1  O   MOL     1     -49.734  -3.033  13.936  1.00 -0.03    -0.273 OA
HETATM    2  C   MOL     1     -48.785  -2.625  14.583  1.00 -0.41     0.224 C 
HETATM    3  C   MOL     1     -48.119  -1.305  14.266  1.00 -0.27     0.106 C 
HETATM    4  C   MOL     1     -47.539  -0.639  15.517  1.00 -0.23     0.044 C 
HETATM    5  C   MOL     1     -46.553  -1.652  16.107  1.00 -0.30     0.180 C 
HETATM    6  C   MOL     1     -47.234  -2.962  16.438  1.00 -0.49     0.247 C 
HETATM    7  O   MOL     1     -46.872  -3.651  17.377  1.00 -0.12    -0.271 OA
HETATM    8  N   MOL     1     -48.261  -3.305  15.628  1.00 -0.04    -0.296 N 
HETATM    9  HN  MOL     1     -48.650  -4.073  15.813  1.00 -0.27     0.171 HD
ENDROOT
BRANCH   5  10
HETATM   10  N   MOL     1     -45.868  -1.091  17.281  1.00  0.05    -0.337 N 
HETATM   11  C   MOL     1     -46.587  -0.364  18.341  1.00 -0.25     0.138 C 
HETATM   12  C   MOL     1     -45.349   0.466  18.729  1.00 -0.27     0.070 C 
HETATM   13  C   MOL     1     -45.294   1.409  19.912  1.00 -0.20     0.011 C 
HETATM   14  C   MOL     1     -44.213  -0.560  18.766  1.00 -0.40     0.112 C 
HETATM   15  C   MOL     1     -44.098   1.768  20.405  1.00 -0.28     0.025 C 
HETATM   16  C   MOL     1     -42.870   1.245  19.804  1.00 -0.47    -0.001 C 
HETATM   17  C   MOL     1     -42.916   0.157  19.038  1.00 -0.52    -0.012 C 
HETATM   18  C   MOL     1     -44.540  -1.196  17.445  1.00 -0.44     0.229 C 
HETATM   19  O   MOL     1     -43.742  -1.705  16.671  1.00 -0.63    -0.273 OA
BRANCH  13  20
HETATM   20  N   MOL     1     -46.521   1.828  20.339  1.00  0.04    -0.393 N 
HETATM   21  HN  MOL     1     -46.739   1.693  21.182  1.00 -0.01     0.159 HD
BRANCH  20  22
HETATM   22  C   MOL     1     -47.238   2.881  19.606  1.00 -0.24     0.119 C 
BRANCH  22  23
HETATM   23  C   MOL     1     -48.567   3.303  20.252  1.00 -0.09     0.020 C 
BRANCH  23  24
HETATM   24  C   MOL     1     -49.712   2.714  19.415  1.00 -0.19     0.002 C 
BRANCH  24  25
HETATM   25  C   MOL     1     -50.988   2.592  20.261  1.00 -0.35     0.002 C 
BRANCH  25  26
HETATM   26  C   MOL     1     -52.043   1.836  19.441  1.00 -0.42     0.020 C 
BRANCH  26  27
HETATM   27  C   MOL     1     -53.402   2.541  19.551  1.00 -0.29     0.123 C 
BRANCH  27  28
HETATM   28  N   MOL     1     -53.511   3.519  18.458  1.00 -0.04    -0.357 N 
HETATM   29  C   MOL     1     -54.112   3.169  17.299  1.00 -0.29     0.254 C 
HETATM   30  O   MOL     1     -54.584   2.052  17.104  1.00 -0.19    -0.268 OA
HETATM   31  HN  MOL     1     -53.200   4.333  18.575  1.00 -0.09     0.162 HD
BRANCH  29  32
HETATM   32  C   MOL     1     -54.214   4.150  16.181  1.00 -0.21     0.061 A 
HETATM   33  C   MOL     1     -55.166   5.151  16.204  1.00 -0.36     0.038 A 
HETATM   34  C   MOL     1     -55.240   6.068  15.186  1.00 -0.38     0.117 A 
HETATM   35  N   MOL     1     -54.422   6.069  14.118  1.00 -0.12    -0.271 NA
HETATM   36  C   MOL     1     -53.498   5.095  14.100  1.00 -0.27     0.146 A 
HETATM   37  C   MOL     1     -53.358   4.130  15.083  1.00 -0.14     0.068 A 
BRANCH  37  38
HETATM   38  N   MOL     1     -52.373   3.143  14.960  1.00  0.07    -0.325 N 
HETATM   39  C   MOL     1     -52.507   1.965  14.316  1.00 -0.29     0.226 C 
HETATM   40  O   MOL     1     -53.512   1.608  13.719  1.00 -0.10    -0.273 OA
HETATM   41  HN  MOL     1     -51.597   3.312  15.336  1.00  0.05     0.169 HD
BRANCH  39  42
HETATM   42  C   MOL     1     -51.257   1.111  14.370  1.00 -0.34     0.141 C 
BRANCH  42  43
HETATM   43  C   MOL     1     -51.436  -0.027  15.357  1.00 -0.21    -0.048 A 
HETATM   44  C   MOL     1     -52.296  -1.064  15.069  1.00 -0.31     0.007 A 
HETATM   45  C   MOL     1     -52.458  -2.097  15.965  1.00 -0.36     0.002 A 
HETATM   46  C   MOL     1     -51.759  -2.096  17.151  1.00 -0.30     0.024 A 
HETATM   47  C   MOL     1     -50.898  -1.062  17.441  1.00 -0.25     0.034 A 
HETATM   48 CL   MOL     1     -50.014  -1.059  18.939  1.00 -0.85    -0.084 Cl
HETATM   49  C   MOL     1     -50.737  -0.028  16.543  1.00 -0.22     0.031 A 
ENDBRANCH  42  43
ENDBRANCH  39  42
ENDBRANCH  37  38
ENDBRANCH  29  32
ENDBRANCH  27  28
ENDBRANCH  26  27
ENDBRANCH  25  26
ENDBRANCH  24  25
ENDBRANCH  23  24
ENDBRANCH  22  23
ENDBRANCH  20  22
ENDBRANCH  13  20
ENDBRANCH   5  10
TORSDOF 13
ENDMDL
MODEL 4
REMARK VINA RESULT:      -5.0      2.112      2.750
REMARK  13 active torsions:
REMARK  status: ('A' for Active; 'I' for Inactive)
REMARK    1  A    between atoms: C_5  and  N_6 
REMARK    2  A    between atoms: C_9  and  N_10 
REMARK    3  A    between atoms: N_10  and  C_11 
REMARK    4  A    between atoms: C_11  and  C_12 
REMARK    5  A    between atoms: C_12  and  C_13 
REMARK    6  A    between atoms: C_13  and  C_14 
REMARK    7  A    between atoms: C_14  and  C_15 
REMARK    8  A    between atoms: C_15  and  C_16 
REMARK    9  A    between atoms: C_16  and  N_17 
REMARK       I    between atoms: N_17  and  C_18 
REMARK   10  A    between atoms: C_18  and  C_20 
REMARK   11  A    between atoms: C_25  and  N_26 
REMARK       I    between atoms: N_26  and  C_27 
REMARK   12  A    between atoms: C_27  and  C_29 
REMARK   13  A    between atoms: C_29  and  C_30 
ROOT
HETATM    1  O   MOL     1     -52.122   2.680  20.244  1.00 -0.03    -0.273 OA
HETATM    2  C   MOL     1     -50.968   2.289  20.220  1.00 -0.41     0.224 C 
HETATM    3  C   MOL     1     -50.593   0.895  20.669  1.00 -0.27     0.106 C 
HETATM    4  C   MOL     1     -49.379   0.354  19.908  1.00 -0.23     0.044 C 
HETATM    5  C   MOL     1     -48.251   1.359  20.158  1.00 -0.30     0.180 C 
HETATM    6  C   MOL     1     -48.629   2.747  19.689  1.00 -0.49     0.247 C 
HETATM    7  O   MOL     1     -47.796   3.522  19.250  1.00 -0.12    -0.271 OA
HETATM    8  N   MOL     1     -49.941   3.058  19.789  1.00 -0.04    -0.296 N 
HETATM    9  HN  MOL     1     -50.159   3.870  19.527  1.00 -0.27     0.171 HD
ENDROOT
BRANCH   5  10
HETATM   10  N   MOL     1     -46.998   0.905  19.536  1.00  0.05    -0.337 N 
HETATM   11  C   MOL     1     -46.928   0.470  18.131  1.00 -0.25     0.138 C 
HETATM   12  C   MOL     1     -45.724  -0.455  18.388  1.00 -0.27     0.070 C 
HETATM   13  C   MOL     1     -44.970  -1.191  17.301  1.00 -0.20     0.011 C 
HETATM   14  C   MOL     1     -44.789   0.390  19.257  1.00 -0.40     0.112 C 
HETATM   15  C   MOL     1     -43.728  -1.633  17.554  1.00 -0.28     0.025 C 
HETATM   16  C   MOL     1     -43.117  -1.396  18.863  1.00 -0.47    -0.001 C 
HETATM   17  C   MOL     1     -43.607  -0.452  19.665  1.00 -0.52    -0.012 C 
HETATM   18  C   MOL     1     -45.846   0.842  20.223  1.00 -0.44     0.229 C 
HETATM   19  O   MOL     1     -45.683   1.100  21.407  1.00 -0.63    -0.273 OA
BRANCH  13  20
HETATM   20  N   MOL     1     -45.684  -1.354  16.150  1.00  0.04    -0.393 N 
HETATM   21  HN  MOL     1     -45.458  -0.875  15.446  1.00 -0.01     0.159 HD
BRANCH  20  22
HETATM   22  C   MOL     1     -46.443  -2.592  15.921  1.00 -0.24     0.119 C 
BRANCH  22  23
HETATM   23  C   MOL     1     -47.937  -2.369  15.636  1.00 -0.09     0.020 C 
BRANCH  23  24
HETATM   24  C   MOL     1     -48.073  -1.115  14.759  1.00 -0.19     0.002 C 
BRANCH  24  25
HETATM   25  C   MOL     1     -49.498  -0.549  14.850  1.00 -0.35     0.002 C 
BRANCH  25  26
HETATM   26  C   MOL     1     -49.976  -0.674  16.304  1.00 -0.42     0.020 C 
BRANCH  26  27
HETATM   27  C   MOL     1     -50.869   0.520  16.670  1.00 -0.29     0.123 C 
BRANCH  27  28
HETATM   28  N   MOL     1     -51.845   0.722  15.591  1.00 -0.04    -0.357 N 
HETATM   29  C   MOL     1     -53.164   0.554  15.834  1.00 -0.29     0.254 C 
HETATM   30  O   MOL     1     -53.601   0.232  16.937  1.00 -0.19    -0.268 OA
HETATM   31  HN  MOL     1     -51.564   0.973  14.796  1.00 -0.09     0.162 HD
BRANCH  29  32
HETATM   32  C   MOL     1     -54.159   0.744  14.741  1.00 -0.21     0.061 A 
HETATM   33  C   MOL     1     -54.438   2.005  14.250  1.00 -0.36     0.038 A 
HETATM   34  C   MOL     1     -55.335   2.174  13.227  1.00 -0.38     0.117 A 
HETATM   35  N   MOL     1     -55.997   1.162  12.636  1.00 -0.12    -0.271 NA
HETATM   36  C   MOL     1     -55.724  -0.062  13.116  1.00 -0.27     0.146 A 
HETATM   37  C   MOL     1     -54.836  -0.318  14.147  1.00 -0.14     0.068 A 
BRANCH  37  38
HETATM   38  N   MOL     1     -54.636  -1.632  14.589  1.00  0.07    -0.325 N 
HETATM   39  C   MOL     1     -53.518  -2.366  14.412  1.00 -0.29     0.226 C 
HETATM   40  O   MOL     1     -52.503  -1.967  13.859  1.00 -0.10    -0.273 OA
HETATM   41  HN  MOL     1     -55.301  -2.007  15.022  1.00  0.05     0.169 HD
BRANCH  39  42
HETATM   42  C   MOL     1     -53.619  -3.757  15.002  1.00 -0.34     0.141 C 
BRANCH  42  43
HETATM   43  C   MOL     1     -52.385  -4.073  15.826  1.00 -0.21    -0.048 A 
HETATM   44  C   MOL     1     -51.438  -4.951  15.347  1.00 -0.31     0.007 A 
HETATM   45  C   MOL     1     -50.318  -5.236  16.094  1.00 -0.36     0.002 A 
HETATM   46  C   MOL     1     -50.141  -4.644  17.324  1.00 -0.30     0.024 A 
HETATM   47  C   MOL     1     -51.085  -3.764  17.805  1.00 -0.25     0.034 A 
HETATM   48 CL   MOL     1     -50.863  -3.014  19.359  1.00 -0.85    -0.084 Cl
HETATM   49  C   MOL     1     -52.206  -3.480  17.056  1.00 -0.22     0.031 A 
ENDBRANCH  42  43
ENDBRANCH  39  42
ENDBRANCH  37  38
ENDBRANCH  29  32
ENDBRANCH  27  28
ENDBRANCH  26  27
ENDBRANCH  25  26
ENDBRANCH  24  25
ENDBRANCH  23  24
ENDBRANCH  22  23
ENDBRANCH  20  22
ENDBRANCH  13  20
ENDBRANCH   5  10
TORSDOF 13
ENDMDL
MODEL 5
REMARK VINA RESULT:      -4.9      4.650      6.658
REMARK  13 active torsions:
REMARK  status: ('A' for Active; 'I' for Inactive)
REMARK    1  A    between atoms: C_5  and  N_6 
REMARK    2  A    between atoms: C_9  and  N_10 
REMARK    3  A    between atoms: N_10  and  C_11 
REMARK    4  A    between atoms: C_11  and  C_12 
REMARK    5  A    between atoms: C_12  and  C_13 
REMARK    6  A    between atoms: C_13  and  C_14 
REMARK    7  A    between atoms: C_14  and  C_15 
REMARK    8  A    between atoms: C_15  and  C_16 
REMARK    9  A    between atoms: C_16  and  N_17 
REMARK       I    between atoms: N_17  and  C_18 
REMARK   10  A    between atoms: C_18  and  C_20 
REMARK   11  A    between atoms: C_25  and  N_26 
REMARK       I    between atoms: N_26  and  C_27 
REMARK   12  A    between atoms: C_27  and  C_29 
REMARK   13  A    between atoms: C_29  and  C_30 
ROOT
HETATM    1  O   MOL     1     -52.564   1.690  20.917  1.00 -0.03    -0.273 OA
HETATM    2  C   MOL     1     -51.443   1.400  20.538  1.00 -0.41     0.224 C 
HETATM    3  C   MOL     1     -50.942  -0.026  20.564  1.00 -0.27     0.106 C 
HETATM    4  C   MOL     1     -49.940  -0.304  19.440  1.00 -0.23     0.044 C 
HETATM    5  C   MOL     1     -48.806   0.707  19.636  1.00 -0.30     0.180 C 
HETATM    6  C   MOL     1     -49.316   2.130  19.589  1.00 -0.49     0.247 C 
HETATM    7  O   MOL     1     -48.631   3.040  19.151  1.00 -0.12    -0.271 OA
HETATM    8  N   MOL     1     -50.569   2.315  20.060  1.00 -0.04    -0.296 N 
HETATM    9  HN  MOL     1     -50.861   3.146  20.043  1.00 -0.27     0.171 HD
ENDROOT
BRANCH   5  10
HETATM   10  N   MOL     1     -47.734   0.487  18.653  1.00  0.05    -0.337 N 
HETATM   11  C   MOL     1     -48.006   0.314  17.216  1.00 -0.25     0.138 C 
HETATM   12  C   MOL     1     -46.735  -0.525  16.990  1.00 -0.27     0.070 C 
HETATM   13  C   MOL     1     -46.251  -0.986  15.632  1.00 -0.20     0.011 C 
HETATM   14  C   MOL     1     -45.648   0.238  17.753  1.00 -0.40     0.112 C 
HETATM   15  C   MOL     1     -44.966  -1.348  15.485  1.00 -0.28     0.025 C 
HETATM   16  C   MOL     1     -44.052  -1.288  16.627  1.00 -0.47    -0.001 C 
HETATM   17  C   MOL     1     -44.364  -0.549  17.691  1.00 -0.52    -0.012 C 
HETATM   18  C   MOL     1     -46.443   0.413  19.015  1.00 -0.44     0.229 C 
HETATM   19  O   MOL     1     -45.994   0.472  20.151  1.00 -0.63    -0.273 OA
BRANCH  13  20
HETATM   20  N   MOL     1     -47.227  -1.011  14.678  1.00  0.04    -0.393 N 
HETATM   21  HN  MOL     1     -47.126  -0.506  13.963  1.00 -0.01     0.159 HD
BRANCH  20  22
HETATM   22  C   MOL     1     -48.136  -2.161  14.583  1.00 -0.24     0.119 C 
BRANCH  22  23
HETATM   23  C   MOL     1     -49.566  -1.798  14.152  1.00 -0.09     0.020 C 
BRANCH  23  24
HETATM   24  C   MOL     1     -50.512  -2.116  15.320  1.00 -0.19     0.002 C 
BRANCH  24  25
HETATM   25  C   MOL     1     -51.394  -0.900  15.641  1.00 -0.35     0.002 C 
BRANCH  25  26
HETATM   26  C   MOL     1     -51.064   0.216  14.639  1.00 -0.42     0.020 C 
BRANCH  26  27
HETATM   27  C   MOL     1     -52.141   1.308  14.692  1.00 -0.29     0.123 C 
BRANCH  27  28
HETATM   28  N   MOL     1     -51.848   2.305  13.653  1.00 -0.04    -0.357 N 
HETATM   29  C   MOL     1     -52.823   3.134  13.219  1.00 -0.29     0.254 C 
HETATM   30  O   MOL     1     -53.971   3.098  13.657  1.00 -0.19    -0.268 OA
HETATM   31  HN  MOL     1     -51.031   2.369  13.335  1.00 -0.09     0.162 HD
BRANCH  29  32
HETATM   32  C   MOL     1     -52.537   4.138  12.156  1.00 -0.21     0.061 A 
HETATM   33  C   MOL     1     -51.873   5.313  12.453  1.00 -0.36     0.038 A 
HETATM   34  C   MOL     1     -51.588   6.223  11.468  1.00 -0.38     0.117 A 
HETATM   35  N   MOL     1     -51.920   6.055  10.174  1.00 -0.12    -0.271 NA
HETATM   36  C   MOL     1     -52.565   4.913   9.889  1.00 -0.27     0.146 A 
HETATM   37  C   MOL     1     -52.894   3.946  10.824  1.00 -0.14     0.068 A 
BRANCH  37  38
HETATM   38  N   MOL     1     -53.587   2.796  10.426  1.00  0.07    -0.325 N 
HETATM   39  C   MOL     1     -54.913   2.709  10.196  1.00 -0.29     0.226 C 
HETATM   40  O   MOL     1     -55.696   3.645  10.277  1.00 -0.10    -0.273 OA
HETATM   41  HN  MOL     1     -53.109   2.067  10.316  1.00  0.05     0.169 HD
BRANCH  39  42
HETATM   42  C   MOL     1     -55.358   1.320   9.787  1.00 -0.34     0.141 C 
BRANCH  42  43
HETATM   43  C   MOL     1     -56.486   1.403   8.775  1.00 -0.21    -0.048 A 
HETATM   44  C   MOL     1     -57.796   1.408   9.198  1.00 -0.31     0.007 A 
HETATM   45  C   MOL     1     -58.819   1.485   8.279  1.00 -0.36     0.002 A 
HETATM   46  C   MOL     1     -58.533   1.557   6.934  1.00 -0.30     0.024 A 
HETATM   47  C   MOL     1     -57.224   1.553   6.509  1.00 -0.25     0.034 A 
HETATM   48 CL   MOL     1     -56.861   1.644   4.810  1.00 -0.85    -0.084 Cl
HETATM   49  C   MOL     1     -56.201   1.477   7.429  1.00 -0.22     0.031 A 
ENDBRANCH  42  43
ENDBRANCH  39  42
ENDBRANCH  37  38
ENDBRANCH  29  32
ENDBRANCH  27  28
ENDBRANCH  26  27
ENDBRANCH  25  26
ENDBRANCH  24  25
ENDBRANCH  23  24
ENDBRANCH  22  23
ENDBRANCH  20  22
ENDBRANCH  13  20
ENDBRANCH   5  10
TORSDOF 13
ENDMDL
MODEL 6
REMARK VINA RESULT:      -4.9      4.399      7.814
REMARK  13 active torsions:
REMARK  status: ('A' for Active; 'I' for Inactive)
REMARK    1  A    between atoms: C_5  and  N_6 
REMARK    2  A    between atoms: C_9  and  N_10 
REMARK    3  A    between atoms: N_10  and  C_11 
REMARK    4  A    between atoms: C_11  and  C_12 
REMARK    5  A    between atoms: C_12  and  C_13 
REMARK    6  A    between atoms: C_13  and  C_14 
REMARK    7  A    between atoms: C_14  and  C_15 
REMARK    8  A    between atoms: C_15  and  C_16 
REMARK    9  A    between atoms: C_16  and  N_17 
REMARK       I    between atoms: N_17  and  C_18 
REMARK   10  A    between atoms: C_18  and  C_20 
REMARK   11  A    between atoms: C_25  and  N_26 
REMARK       I    between atoms: N_26  and  C_27 
REMARK   12  A    between atoms: C_27  and  C_29 
REMARK   13  A    between atoms: C_29  and  C_30 
ROOT
HETATM    1  O   MOL     1     -46.141   2.323  19.948  1.00 -0.03    -0.273 OA
HETATM    2  C   MOL     1     -46.605   1.346  19.385  1.00 -0.41     0.224 C 
HETATM    3  C   MOL     1     -47.574   0.416  20.079  1.00 -0.27     0.106 C 
HETATM    4  C   MOL     1     -48.564  -0.219  19.099  1.00 -0.23     0.044 C 
HETATM    5  C   MOL     1     -47.708  -0.952  18.062  1.00 -0.30     0.180 C 
HETATM    6  C   MOL     1     -46.756  -0.009  17.360  1.00 -0.49     0.247 C 
HETATM    7  O   MOL     1     -46.430  -0.179  16.197  1.00 -0.12    -0.271 OA
HETATM    8  N   MOL     1     -46.302   1.022  18.107  1.00 -0.04    -0.296 N 
HETATM    9  HN  MOL     1     -45.738   1.564  17.702  1.00 -0.27     0.171 HD
ENDROOT
BRANCH   5  10
HETATM   10  N   MOL     1     -48.556  -1.673  17.101  1.00  0.05    -0.337 N 
HETATM   11  C   MOL     1     -49.631  -1.009  16.344  1.00 -0.25     0.138 C 
HETATM   12  C   MOL     1     -50.446  -2.307  16.196  1.00 -0.27     0.070 C 
HETATM   13  C   MOL     1     -51.705  -2.430  15.366  1.00 -0.20     0.011 C 
HETATM   14  C   MOL     1     -49.401  -3.356  15.805  1.00 -0.40     0.112 C 
HETATM   15  C   MOL     1     -52.110  -3.648  14.973  1.00 -0.28     0.025 C 
HETATM   16  C   MOL     1     -51.335  -4.834  15.341  1.00 -0.47    -0.001 C 
HETATM   17  C   MOL     1     -50.068  -4.706  15.731  1.00 -0.52    -0.012 C 
HETATM   18  C   MOL     1     -48.410  -2.988  16.872  1.00 -0.44     0.229 C 
HETATM   19  O   MOL     1     -47.625  -3.747  17.423  1.00 -0.63    -0.273 OA
BRANCH  13  20
HETATM   20  N   MOL     1     -52.327  -1.239  15.128  1.00  0.04    -0.393 N 
HETATM   21  HN  MOL     1     -51.915  -0.646  14.624  1.00 -0.01     0.159 HD
BRANCH  20  22
HETATM   22  C   MOL     1     -53.786  -1.128  15.266  1.00 -0.24     0.119 C 
BRANCH  22  23
HETATM   23  C   MOL     1     -54.425  -0.071  14.351  1.00 -0.09     0.020 C 
BRANCH  23  24
HETATM   24  C   MOL     1     -55.408   0.756  15.192  1.00 -0.19     0.002 C 
BRANCH  24  25
HETATM   25  C   MOL     1     -55.074   2.252  15.091  1.00 -0.35     0.002 C 
BRANCH  25  26
HETATM   26  C   MOL     1     -54.168   2.627  16.273  1.00 -0.42     0.020 C 
BRANCH  26  27
HETATM   27  C   MOL     1     -52.728   2.839  15.787  1.00 -0.29     0.123 C 
BRANCH  27  28
HETATM   28  N   MOL     1     -52.753   3.738  14.625  1.00 -0.04    -0.357 N 
HETATM   29  C   MOL     1     -52.316   3.299  13.423  1.00 -0.29     0.254 C 
HETATM   30  O   MOL     1     -51.888   2.161  13.246  1.00 -0.19    -0.268 OA
HETATM   31  HN  MOL     1     -53.073   4.552  14.716  1.00 -0.09     0.162 HD
BRANCH  29  32
HETATM   32  C   MOL     1     -52.327   4.209  12.243  1.00 -0.21     0.061 A 
HETATM   33  C   MOL     1     -51.572   5.366  12.236  1.00 -0.36     0.038 A 
HETATM   34  C   MOL     1     -51.563   6.188  11.138  1.00 -0.38     0.117 A 
HETATM   35  N   MOL     1     -52.265   5.946  10.015  1.00 -0.12    -0.271 NA
HETATM   36  C   MOL     1     -52.997   4.821  10.026  1.00 -0.27     0.146 A 
HETATM   37  C   MOL     1     -53.064   3.941  11.093  1.00 -0.14     0.068 A 
BRANCH  37  38
HETATM   38  N   MOL     1     -53.875   2.802  11.011  1.00  0.07    -0.325 N 
HETATM   39  C   MOL     1     -55.192   2.745  11.299  1.00 -0.29     0.226 C 
HETATM   40  O   MOL     1     -55.871   3.700  11.647  1.00 -0.10    -0.273 OA
HETATM   41  HN  MOL     1     -53.487   2.061  10.745  1.00  0.05     0.169 HD
BRANCH  39  42
HETATM   42  C   MOL     1     -55.782   1.362  11.117  1.00 -0.34     0.141 C 
BRANCH  42  43
HETATM   43  C   MOL     1     -56.035   1.084   9.647  1.00 -0.21    -0.048 A 
HETATM   44  C   MOL     1     -56.343   2.116   8.790  1.00 -0.31     0.007 A 
HETATM   45  C   MOL     1     -56.571   1.863   7.456  1.00 -0.36     0.002 A 
HETATM   46  C   MOL     1     -56.491   0.576   6.975  1.00 -0.30     0.024 A 
HETATM   47  C   MOL     1     -56.180  -0.458   7.830  1.00 -0.25     0.034 A 
HETATM   48 CL   MOL     1     -56.077  -2.086   7.224  1.00 -0.85    -0.084 Cl
HETATM   49  C   MOL     1     -55.953  -0.204   9.164  1.00 -0.22     0.031 A 
ENDBRANCH  42  43
ENDBRANCH  39  42
ENDBRANCH  37  38
ENDBRANCH  29  32
ENDBRANCH  27  28
ENDBRANCH  26  27
ENDBRANCH  25  26
ENDBRANCH  24  25
ENDBRANCH  23  24
ENDBRANCH  22  23
ENDBRANCH  20  22
ENDBRANCH  13  20
ENDBRANCH   5  10
TORSDOF 13
ENDMDL
MODEL 7
REMARK VINA RESULT:      -4.9      2.899      6.316
REMARK  13 active torsions:
REMARK  status: ('A' for Active; 'I' for Inactive)
REMARK    1  A    between atoms: C_5  and  N_6 
REMARK    2  A    between atoms: C_9  and  N_10 
REMARK    3  A    between atoms: N_10  and  C_11 
REMARK    4  A    between atoms: C_11  and  C_12 
REMARK    5  A    between atoms: C_12  and  C_13 
REMARK    6  A    between atoms: C_13  and  C_14 
REMARK    7  A    between atoms: C_14  and  C_15 
REMARK    8  A    between atoms: C_15  and  C_16 
REMARK    9  A    between atoms: C_16  and  N_17 
REMARK       I    between atoms: N_17  and  C_18 
REMARK   10  A    between atoms: C_18  and  C_20 
REMARK   11  A    between atoms: C_25  and  N_26 
REMARK       I    between atoms: N_26  and  C_27 
REMARK   12  A    between atoms: C_27  and  C_29 
REMARK   13  A    between atoms: C_29  and  C_30 
ROOT
HETATM    1  O   MOL     1     -49.829  -3.052  13.821  1.00 -0.03    -0.273 OA
HETATM    2  C   MOL     1     -48.866  -2.674  14.465  1.00 -0.41     0.224 C 
HETATM    3  C   MOL     1     -48.081  -1.443  14.071  1.00 -0.27     0.106 C 
HETATM    4  C   MOL     1     -47.479  -0.732  15.286  1.00 -0.23     0.044 C 
HETATM    5  C   MOL     1     -46.599  -1.774  15.983  1.00 -0.30     0.180 C 
HETATM    6  C   MOL     1     -47.397  -2.993  16.390  1.00 -0.49     0.247 C 
HETATM    7  O   MOL     1     -47.119  -3.635  17.389  1.00 -0.12    -0.271 OA
HETATM    8  N   MOL     1     -48.428  -3.312  15.575  1.00 -0.04    -0.296 N 
HETATM    9  HN  MOL     1     -48.886  -4.029  15.806  1.00 -0.27     0.171 HD
ENDROOT
BRANCH   5  10
HETATM   10  N   MOL     1     -45.899  -1.182  17.132  1.00  0.05    -0.337 N 
HETATM   11  C   MOL     1     -46.568  -0.277  18.082  1.00 -0.25     0.138 C 
HETATM   12  C   MOL     1     -45.257   0.441  18.453  1.00 -0.27     0.070 C 
HETATM   13  C   MOL     1     -45.138   1.484  19.544  1.00 -0.20     0.011 C 
HETATM   14  C   MOL     1     -44.252  -0.699  18.643  1.00 -0.40     0.112 C 
HETATM   15  C   MOL     1     -43.928   1.751  20.061  1.00 -0.28     0.025 C 
HETATM   16  C   MOL     1     -42.748   1.036  19.574  1.00 -0.47    -0.001 C 
HETATM   17  C   MOL     1     -42.891  -0.110  18.911  1.00 -0.52    -0.012 C 
HETATM   18  C   MOL     1     -44.599  -1.420  17.372  1.00 -0.44     0.229 C 
HETATM   19  O   MOL     1     -43.837  -2.090  16.689  1.00 -0.63    -0.273 OA
BRANCH  13  20
HETATM   20  N   MOL     1     -46.322   2.079  19.869  1.00  0.04    -0.393 N 
HETATM   21  HN  MOL     1     -47.001   1.990  19.314  1.00 -0.01     0.159 HD
BRANCH  20  22
HETATM   22  C   MOL     1     -46.621   2.414  21.268  1.00 -0.24     0.119 C 
BRANCH  22  23
HETATM   23  C   MOL     1     -48.088   2.794  21.524  1.00 -0.09     0.020 C 
BRANCH  23  24
HETATM   24  C   MOL     1     -48.977   1.713  20.892  1.00 -0.19     0.002 C 
BRANCH  24  25
HETATM   25  C   MOL     1     -50.456   2.121  20.973  1.00 -0.35     0.002 C 
BRANCH  25  26
HETATM   26  C   MOL     1     -51.245   1.287  19.953  1.00 -0.42     0.020 C 
BRANCH  26  27
HETATM   27  C   MOL     1     -50.821  -0.186  20.034  1.00 -0.29     0.123 C 
BRANCH  27  28
HETATM   28  N   MOL     1     -51.563  -0.943  19.016  1.00 -0.04    -0.357 N 
HETATM   29  C   MOL     1     -51.034  -1.113  17.783  1.00 -0.29     0.254 C 
HETATM   30  O   MOL     1     -49.940  -0.657  17.460  1.00 -0.19    -0.268 OA
HETATM   31  HN  MOL     1     -52.340  -1.298  19.224  1.00 -0.09     0.162 HD
BRANCH  29  32
HETATM   32  C   MOL     1     -51.787  -1.867  16.742  1.00 -0.21     0.061 A 
HETATM   33  C   MOL     1     -51.824  -3.248  16.757  1.00 -0.36     0.038 A 
HETATM   34  C   MOL     1     -52.539  -3.939  15.812  1.00 -0.38     0.117 A 
HETATM   35  N   MOL     1     -53.240  -3.350  14.825  1.00 -0.12    -0.271 NA
HETATM   36  C   MOL     1     -53.201  -2.008  14.813  1.00 -0.27     0.146 A 
HETATM   37  C   MOL     1     -52.501  -1.237  15.726  1.00 -0.14     0.068 A 
BRANCH  37  38
HETATM   38  N   MOL     1     -52.509   0.159  15.614  1.00  0.07    -0.325 N 
HETATM   39  C   MOL     1     -51.769   0.889  14.755  1.00 -0.29     0.226 C 
HETATM   40  O   MOL     1     -51.002   0.422  13.926  1.00 -0.10    -0.273 OA
HETATM   41  HN  MOL     1     -53.049   0.593  16.154  1.00  0.05     0.169 HD
BRANCH  39  42
HETATM   42  C   MOL     1     -52.000   2.380  14.888  1.00 -0.34     0.141 C 
BRANCH  42  43
HETATM   43  C   MOL     1     -52.760   2.907  13.684  1.00 -0.21    -0.048 A 
HETATM   44  C   MOL     1     -54.073   2.544  13.482  1.00 -0.31     0.007 A 
HETATM   45  C   MOL     1     -54.762   3.023  12.391  1.00 -0.36     0.002 A 
HETATM   46  C   MOL     1     -54.140   3.866  11.498  1.00 -0.30     0.024 A 
HETATM   47  C   MOL     1     -52.828   4.231  11.699  1.00 -0.25     0.034 A 
HETATM   48 CL   MOL     1     -52.039   5.297  10.573  1.00 -0.85    -0.084 Cl
HETATM   49  C   MOL     1     -52.139   3.752  12.792  1.00 -0.22     0.031 A 
ENDBRANCH  42  43
ENDBRANCH  39  42
ENDBRANCH  37  38
ENDBRANCH  29  32
ENDBRANCH  27  28
ENDBRANCH  26  27
ENDBRANCH  25  26
ENDBRANCH  24  25
ENDBRANCH  23  24
ENDBRANCH  22  23
ENDBRANCH  20  22
ENDBRANCH  13  20
ENDBRANCH   5  10
TORSDOF 13
ENDMDL
MODEL 8
REMARK VINA RESULT:      -4.9      1.564      2.136
REMARK  13 active torsions:
REMARK  status: ('A' for Active; 'I' for Inactive)
REMARK    1  A    between atoms: C_5  and  N_6 
REMARK    2  A    between atoms: C_9  and  N_10 
REMARK    3  A    between atoms: N_10  and  C_11 
REMARK    4  A    between atoms: C_11  and  C_12 
REMARK    5  A    between atoms: C_12  and  C_13 
REMARK    6  A    between atoms: C_13  and  C_14 
REMARK    7  A    between atoms: C_14  and  C_15 
REMARK    8  A    between atoms: C_15  and  C_16 
REMARK    9  A    between atoms: C_16  and  N_17 
REMARK       I    between atoms: N_17  and  C_18 
REMARK   10  A    between atoms: C_18  and  C_20 
REMARK   11  A    between atoms: C_25  and  N_26 
REMARK       I    between atoms: N_26  and  C_27 
REMARK   12  A    between atoms: C_27  and  C_29 
REMARK   13  A    between atoms: C_29  and  C_30 
ROOT
HETATM    1  O   MOL     1     -52.214   2.737  19.990  1.00 -0.03    -0.273 OA
HETATM    2  C   MOL     1     -51.070   2.317  20.021  1.00 -0.41     0.224 C 
HETATM    3  C   MOL     1     -50.755   0.906  20.463  1.00 -0.27     0.106 C 
HETATM    4  C   MOL     1     -49.515   0.346  19.760  1.00 -0.23     0.044 C 
HETATM    5  C   MOL     1     -48.378   1.318  20.088  1.00 -0.30     0.180 C 
HETATM    6  C   MOL     1     -48.695   2.723  19.625  1.00 -0.49     0.247 C 
HETATM    7  O   MOL     1     -47.821   3.484  19.246  1.00 -0.12    -0.271 OA
HETATM    8  N   MOL     1     -50.003   3.066  19.660  1.00 -0.04    -0.296 N 
HETATM    9  HN  MOL     1     -50.186   3.888  19.401  1.00 -0.27     0.171 HD
ENDROOT
BRANCH   5  10
HETATM   10  N   MOL     1     -47.105   0.842  19.527  1.00  0.05    -0.337 N 
HETATM   11  C   MOL     1     -46.950   0.502  18.102  1.00 -0.25     0.138 C 
HETATM   12  C   MOL     1     -45.814  -0.500  18.377  1.00 -0.27     0.070 C 
HETATM   13  C   MOL     1     -45.016  -1.199  17.296  1.00 -0.20     0.011 C 
HETATM   14  C   MOL     1     -44.908   0.232  19.370  1.00 -0.40     0.112 C 
HETATM   15  C   MOL     1     -43.819  -1.722  17.605  1.00 -0.28     0.025 C 
HETATM   16  C   MOL     1     -43.298  -1.609  18.968  1.00 -0.47    -0.001 C 
HETATM   17  C   MOL     1     -43.802  -0.698  19.799  1.00 -0.52    -0.012 C 
HETATM   18  C   MOL     1     -46.012   0.671  20.288  1.00 -0.44     0.229 C 
HETATM   19  O   MOL     1     -45.926   0.837  21.497  1.00 -0.63    -0.273 OA
BRANCH  13  20
HETATM   20  N   MOL     1     -45.648  -1.244  16.088  1.00  0.04    -0.393 N 
HETATM   21  HN  MOL     1     -45.417  -0.657  15.473  1.00 -0.01     0.159 HD
BRANCH  20  22
HETATM   22  C   MOL     1     -46.300  -2.483  15.642  1.00 -0.24     0.119 C 
BRANCH  22  23
HETATM   23  C   MOL     1     -47.736  -2.660  16.162  1.00 -0.09     0.020 C 
BRANCH  23  24
HETATM   24  C   MOL     1     -48.693  -2.556  14.966  1.00 -0.19     0.002 C 
BRANCH  24  25
HETATM   25  C   MOL     1     -48.774  -1.105  14.469  1.00 -0.35     0.002 C 
BRANCH  25  26
HETATM   26  C   MOL     1     -49.964  -0.423  15.160  1.00 -0.42     0.020 C 
BRANCH  26  27
HETATM   27  C   MOL     1     -50.860   0.259  14.116  1.00 -0.29     0.123 C 
BRANCH  27  28
HETATM   28  N   MOL     1     -51.434   1.473  14.714  1.00 -0.04    -0.357 N 
HETATM   29  C   MOL     1     -52.769   1.679  14.672  1.00 -0.29     0.254 C 
HETATM   30  O   MOL     1     -53.548   0.886  14.149  1.00 -0.19    -0.268 OA
HETATM   31  HN  MOL     1     -50.903   2.049  15.114  1.00 -0.09     0.162 HD
BRANCH  29  32
HETATM   32  C   MOL     1     -53.357   2.914  15.264  1.00 -0.21     0.061 A 
HETATM   33  C   MOL     1     -53.540   4.048  14.496  1.00 -0.36     0.038 A 
HETATM   34  C   MOL     1     -54.105   5.174  15.037  1.00 -0.38     0.117 A 
HETATM   35  N   MOL     1     -54.514   5.267  16.316  1.00 -0.12    -0.271 NA
HETATM   36  C   MOL     1     -54.334   4.163  17.059  1.00 -0.27     0.146 A 
HETATM   37  C   MOL     1     -53.769   2.989  16.592  1.00 -0.14     0.068 A 
BRANCH  37  38
HETATM   38  N   MOL     1     -53.607   1.898  17.455  1.00  0.07    -0.325 N 
HETATM   39  C   MOL     1     -54.574   1.038  17.835  1.00 -0.29     0.226 C 
HETATM   40  O   MOL     1     -55.733   1.078  17.448  1.00 -0.10    -0.273 OA
HETATM   41  HN  MOL     1     -52.800   1.765  17.774  1.00  0.05     0.169 HD
BRANCH  39  42
HETATM   42  C   MOL     1     -54.079  -0.034  18.785  1.00 -0.34     0.141 C 
BRANCH  42  43
HETATM   43  C   MOL     1     -53.326  -1.109  18.023  1.00 -0.21    -0.048 A 
HETATM   44  C   MOL     1     -52.309  -1.807  18.635  1.00 -0.31     0.007 A 
HETATM   45  C   MOL     1     -51.627  -2.783  17.944  1.00 -0.36     0.002 A 
HETATM   46  C   MOL     1     -51.961  -3.064  16.639  1.00 -0.30     0.024 A 
HETATM   47  C   MOL     1     -52.979  -2.369  16.025  1.00 -0.25     0.034 A 
HETATM   48 CL   MOL     1     -53.403  -2.723  14.376  1.00 -0.85    -0.084 Cl
HETATM   49  C   MOL     1     -53.661  -1.392  16.718  1.00 -0.22     0.031 A 
ENDBRANCH  42  43
ENDBRANCH  39  42
ENDBRANCH  37  38
ENDBRANCH  29  32
ENDBRANCH  27  28
ENDBRANCH  26  27
ENDBRANCH  25  26
ENDBRANCH  24  25
ENDBRANCH  23  24
ENDBRANCH  22  23
ENDBRANCH  20  22
ENDBRANCH  13  20
ENDBRANCH   5  10
TORSDOF 13
ENDMDL
MODEL 9
REMARK VINA RESULT:      -4.8      3.613      5.460
REMARK  13 active torsions:
REMARK  status: ('A' for Active; 'I' for Inactive)
REMARK    1  A    between atoms: C_5  and  N_6 
REMARK    2  A    between atoms: C_9  and  N_10 
REMARK    3  A    between atoms: N_10  and  C_11 
REMARK    4  A    between atoms: C_11  and  C_12 
REMARK    5  A    between atoms: C_12  and  C_13 
REMARK    6  A    between atoms: C_13  and  C_14 
REMARK    7  A    between atoms: C_14  and  C_15 
REMARK    8  A    between atoms: C_15  and  C_16 
REMARK    9  A    between atoms: C_16  and  N_17 
REMARK       I    between atoms: N_17  and  C_18 
REMARK   10  A    between atoms: C_18  and  C_20 
REMARK   11  A    between atoms: C_25  and  N_26 
REMARK       I    between atoms: N_26  and  C_27 
REMARK   12  A    between atoms: C_27  and  C_29 
REMARK   13  A    between atoms: C_29  and  C_30 
ROOT
HETATM    1  O   MOL     1     -52.608   1.466  20.794  1.00 -0.03    -0.273 OA
HETATM    2  C   MOL     1     -51.483   1.193  20.413  1.00 -0.41     0.224 C 
HETATM    3  C   MOL     1     -50.968  -0.229  20.413  1.00 -0.27     0.106 C 
HETATM    4  C   MOL     1     -49.959  -0.475  19.288  1.00 -0.23     0.044 C 
HETATM    5  C   MOL     1     -48.836   0.542  19.508  1.00 -0.30     0.180 C 
HETATM    6  C   MOL     1     -49.358   1.961  19.486  1.00 -0.49     0.247 C 
HETATM    7  O   MOL     1     -48.681   2.886  19.069  1.00 -0.12    -0.271 OA
HETATM    8  N   MOL     1     -50.615   2.126  19.956  1.00 -0.04    -0.296 N 
HETATM    9  HN  MOL     1     -50.915   2.954  19.955  1.00 -0.27     0.171 HD
ENDROOT
BRANCH   5  10
HETATM   10  N   MOL     1     -47.758   0.351  18.525  1.00  0.05    -0.337 N 
HETATM   11  C   MOL     1     -48.027   0.138  17.092  1.00 -0.25     0.138 C 
HETATM   12  C   MOL     1     -46.720  -0.647  16.877  1.00 -0.27     0.070 C 
HETATM   13  C   MOL     1     -46.220  -1.112  15.526  1.00 -0.20     0.011 C 
HETATM   14  C   MOL     1     -45.666   0.178  17.620  1.00 -0.40     0.112 C 
HETATM   15  C   MOL     1     -44.921  -1.418  15.381  1.00 -0.28     0.025 C 
HETATM   16  C   MOL     1     -44.007  -1.295  16.518  1.00 -0.47    -0.001 C 
HETATM   17  C   MOL     1     -44.348  -0.551  17.568  1.00 -0.52    -0.012 C 
HETATM   18  C   MOL     1     -46.464   0.342  18.882  1.00 -0.44     0.229 C 
HETATM   19  O   MOL     1     -46.014   0.444  20.015  1.00 -0.63    -0.273 OA
BRANCH  13  20
HETATM   20  N   MOL     1     -47.198  -1.198  14.577  1.00  0.04    -0.393 N 
HETATM   21  HN  MOL     1     -47.066  -0.799  13.803  1.00 -0.01     0.159 HD
BRANCH  20  22
HETATM   22  C   MOL     1     -48.179  -2.291  14.627  1.00 -0.24     0.119 C 
BRANCH  22  23
HETATM   23  C   MOL     1     -49.598  -1.881  14.202  1.00 -0.09     0.020 C 
BRANCH  23  24
HETATM   24  C   MOL     1     -50.546  -2.151  15.380  1.00 -0.19     0.002 C 
BRANCH  24  25
HETATM   25  C   MOL     1     -51.356  -0.891  15.716  1.00 -0.35     0.002 C 
BRANCH  25  26
HETATM   26  C   MOL     1     -51.083   0.164  14.634  1.00 -0.42     0.020 C 
BRANCH  26  27
HETATM   27  C   MOL     1     -52.110   1.301  14.734  1.00 -0.29     0.123 C 
BRANCH  27  28
HETATM   28  N   MOL     1     -51.837   2.272  13.664  1.00 -0.04    -0.357 N 
HETATM   29  C   MOL     1     -52.762   3.206  13.350  1.00 -0.29     0.254 C 
HETATM   30  O   MOL     1     -53.845   3.290  13.926  1.00 -0.19    -0.268 OA
HETATM   31  HN  MOL     1     -51.063   2.250  13.248  1.00 -0.09     0.162 HD
BRANCH  29  32
HETATM   32  C   MOL     1     -52.500   4.185  12.258  1.00 -0.21     0.061 A 
HETATM   33  C   MOL     1     -51.784   5.342  12.502  1.00 -0.36     0.038 A 
HETATM   34  C   MOL     1     -51.522   6.228  11.489  1.00 -0.38     0.117 A 
HETATM   35  N   MOL     1     -51.925   6.053  10.217  1.00 -0.12    -0.271 NA
HETATM   36  C   MOL     1     -52.620   4.928   9.984  1.00 -0.27     0.146 A 
HETATM   37  C   MOL     1     -52.930   3.985  10.949  1.00 -0.14     0.068 A 
BRANCH  37  38
HETATM   38  N   MOL     1     -53.679   2.852  10.607  1.00  0.07    -0.325 N 
HETATM   39  C   MOL     1     -55.025   2.774  10.568  1.00 -0.29     0.226 C 
HETATM   40  O   MOL     1     -55.784   3.703  10.803  1.00 -0.10    -0.273 OA
HETATM   41  HN  MOL     1     -53.226   2.130  10.396  1.00  0.05     0.169 HD
BRANCH  39  42
HETATM   42  C   MOL     1     -55.531   1.404  10.166  1.00 -0.34     0.141 C 
BRANCH  42  43
HETATM   43  C   MOL     1     -56.299   0.767  11.310  1.00 -0.21    -0.048 A 
HETATM   44  C   MOL     1     -57.609   0.382  11.134  1.00 -0.31     0.007 A 
HETATM   45  C   MOL     1     -58.304  -0.197  12.172  1.00 -0.36     0.002 A 
HETATM   46  C   MOL     1     -57.691  -0.392  13.388  1.00 -0.30     0.024 A 
HETATM   47  C   MOL     1     -56.381  -0.009  13.567  1.00 -0.25     0.034 A 
HETATM   48 CL   MOL     1     -55.603  -0.255  15.103  1.00 -0.85    -0.084 Cl
HETATM   49  C   MOL     1     -55.685   0.570  12.527  1.00 -0.22     0.031 A 
ENDBRANCH  42  43
ENDBRANCH  39  42
ENDBRANCH  37  38
ENDBRANCH  29  32
ENDBRANCH  27  28
ENDBRANCH  26  27
ENDBRANCH  25  26
ENDBRANCH  24  25
ENDBRANCH  23  24
ENDBRANCH  22  23
ENDBRANCH  20  22
ENDBRANCH  13  20
ENDBRANCH   5  10
TORSDOF 13
ENDMDL
MODEL 10
REMARK VINA RESULT:      -4.8      2.995      5.500
REMARK  13 active torsions:
REMARK  status: ('A' for Active; 'I' for Inactive)
REMARK    1  A    between atoms: C_5  and  N_6 
REMARK    2  A    between atoms: C_9  and  N_10 
REMARK    3  A    between atoms: N_10  and  C_11 
REMARK    4  A    between atoms: C_11  and  C_12 
REMARK    5  A    between atoms: C_12  and  C_13 
REMARK    6  A    between atoms: C_13  and  C_14 
REMARK    7  A    between atoms: C_14  and  C_15 
REMARK    8  A    between atoms: C_15  and  C_16 
REMARK    9  A    between atoms: C_16  and  N_17 
REMARK       I    between atoms: N_17  and  C_18 
REMARK   10  A    between atoms: C_18  and  C_20 
REMARK   11  A    between atoms: C_25  and  N_26 
REMARK       I    between atoms: N_26  and  C_27 
REMARK   12  A    between atoms: C_27  and  C_29 
REMARK   13  A    between atoms: C_29  and  C_30 
ROOT
HETATM    1  O   MOL     1     -46.012  -2.557  15.535  1.00 -0.03    -0.273 OA
HETATM    2  C   MOL     1     -45.524  -1.751  16.308  1.00 -0.41     0.224 C 
HETATM    3  C   MOL     1     -46.013  -0.323  16.378  1.00 -0.27     0.106 C 
HETATM    4  C   MOL     1     -45.871   0.266  17.785  1.00 -0.23     0.044 C 
HETATM    5  C   MOL     1     -44.384   0.152  18.134  1.00 -0.30     0.180 C 
HETATM    6  C   MOL     1     -43.909  -1.284  18.079  1.00 -0.49     0.247 C 
HETATM    7  O   MOL     1     -43.032  -1.695  18.821  1.00 -0.12    -0.271 OA
HETATM    8  N   MOL     1     -44.522  -2.065  17.162  1.00 -0.04    -0.296 N 
HETATM    9  HN  MOL     1     -44.237  -2.898  17.122  1.00 -0.27     0.171 HD
ENDROOT
BRANCH   5  10
HETATM   10  N   MOL     1     -44.107   0.760  19.444  1.00  0.05    -0.337 N 
HETATM   11  C   MOL     1     -44.960   0.522  20.620  1.00 -0.25     0.138 C 
HETATM   12  C   MOL     1     -44.591   1.870  21.266  1.00 -0.27     0.070 C 
HETATM   13  C   MOL     1     -45.024   2.295  22.654  1.00 -0.20     0.011 C 
HETATM   14  C   MOL     1     -43.073   1.961  21.091  1.00 -0.40     0.112 C 
HETATM   15  C   MOL     1     -44.346   3.271  23.278  1.00 -0.28     0.025 C 
HETATM   16  C   MOL     1     -43.202   3.906  22.621  1.00 -0.47    -0.001 C 
HETATM   17  C   MOL     1     -42.601   3.300  21.598  1.00 -0.52    -0.012 C 
HETATM   18  C   MOL     1     -43.065   1.585  19.637  1.00 -0.44     0.229 C 
HETATM   19  O   MOL     1     -42.263   1.965  18.795  1.00 -0.63    -0.273 OA
BRANCH  13  20
HETATM   20  N   MOL     1     -46.120   1.627  23.117  1.00  0.04    -0.393 N 
HETATM   21  HN  MOL     1     -46.066   1.226  23.900  1.00 -0.01     0.159 HD
BRANCH  20  22
HETATM   22  C   MOL     1     -47.458   1.965  22.610  1.00 -0.24     0.119 C 
BRANCH  22  23
HETATM   23  C   MOL     1     -47.677   3.466  22.366  1.00 -0.09     0.020 C 
BRANCH  23  24
HETATM   24  C   MOL     1     -47.972   3.668  20.872  1.00 -0.19     0.002 C 
BRANCH  24  25
HETATM   25  C   MOL     1     -49.221   2.875  20.461  1.00 -0.35     0.002 C 
BRANCH  25  26
HETATM   26  C   MOL     1     -48.900   2.096  19.177  1.00 -0.42     0.020 C 
BRANCH  26  27
HETATM   27  C   MOL     1     -49.674   0.771  19.156  1.00 -0.29     0.123 C 
BRANCH  27  28
HETATM   28  N   MOL     1     -49.401   0.090  17.882  1.00 -0.04    -0.357 N 
HETATM   29  C   MOL     1     -50.388  -0.589  17.255  1.00 -0.29     0.254 C 
HETATM   30  O   MOL     1     -51.529  -0.669  17.704  1.00 -0.19    -0.268 OA
HETATM   31  HN  MOL     1     -48.600   0.147  17.526  1.00 -0.09     0.162 HD
BRANCH  29  32
HETATM   32  C   MOL     1     -50.116  -1.293  15.971  1.00 -0.21     0.061 A 
HETATM   33  C   MOL     1     -49.915  -0.582  14.804  1.00 -0.36     0.038 A 
HETATM   34  C   MOL     1     -49.639  -1.231  13.628  1.00 -0.38     0.117 A 
HETATM   35  N   MOL     1     -49.544  -2.569  13.515  1.00 -0.12    -0.271 NA
HETATM   36  C   MOL     1     -49.741  -3.257  14.652  1.00 -0.27     0.146 A 
HETATM   37  C   MOL     1     -50.027  -2.679  15.877  1.00 -0.14     0.068 A 
BRANCH  37  38
HETATM   38  N   MOL     1     -50.235  -3.488  17.001  1.00  0.07    -0.325 N 
HETATM   39  C   MOL     1     -49.299  -3.843  17.906  1.00 -0.29     0.226 C 
HETATM   40  O   MOL     1     -48.133  -3.478  17.881  1.00 -0.10    -0.273 OA
HETATM   41  HN  MOL     1     -51.051  -3.787  17.125  1.00  0.05     0.169 HD
BRANCH  39  42
HETATM   42  C   MOL     1     -49.841  -4.734  19.005  1.00 -0.34     0.141 C 
BRANCH  42  43
HETATM   43  C   MOL     1     -49.519  -6.188  18.713  1.00 -0.21    -0.048 A 
HETATM   44  C   MOL     1     -50.411  -6.967  18.010  1.00 -0.31     0.007 A 
HETATM   45  C   MOL     1     -50.118  -8.286  17.745  1.00 -0.36     0.002 A 
HETATM   46  C   MOL     1     -48.931  -8.829  18.182  1.00 -0.30     0.024 A 
HETATM   47  C   MOL     1     -48.037  -8.052  18.884  1.00 -0.25     0.034 A 
HETATM   48 CL   MOL     1     -46.537  -8.737  19.437  1.00 -0.85    -0.084 Cl
HETATM   49  C   MOL     1     -48.331  -6.733  19.149  1.00 -0.22     0.031 A 
ENDBRANCH  42  43
ENDBRANCH  39  42
ENDBRANCH  37  38
ENDBRANCH  29  32
ENDBRANCH  27  28
ENDBRANCH  26  27
ENDBRANCH  25  26
ENDBRANCH  24  25
ENDBRANCH  23  24
ENDBRANCH  22  23
ENDBRANCH  20  22
ENDBRANCH  13  20
ENDBRANCH   5  10
TORSDOF 13
ENDMDL
