MODEL 1
REMARK VINA RESULT:     -11.1      0.000      0.000
REMARK  8 active torsions:
REMARK  status: ('A' for Active; 'I' for Inactive)
REMARK    1  A    between atoms: O_1  and  C_33 
REMARK    2  A    between atoms: O_1  and  C_49 
REMARK    3  A    between atoms: O_8  and  C_53 
REMARK    4  A    between atoms: O_12  and  C_56 
REMARK    5  A    between atoms: O_13  and  C_57 
REMARK    6  A    between atoms: O_14  and  C_59 
REMARK    7  A    between atoms: C_52  and  C_55 
REMARK    8  A    between atoms: C_58  and  C_60 
ROOT
HETATM    1  O   MOL     1     -44.722  -0.779  19.012  1.00  0.00     0.000 OA
ENDROOT
BRANCH   1   2
HETATM    2  C   MOL     1     -44.090  -0.049  19.278  1.00  0.00     0.007 C 
HETATM    3  C   MOL     1     -43.367  -0.218  20.070  1.00  0.00    -0.058 C 
HETATM    4  C   MOL     1     -42.320   0.353  20.000  1.00  0.00    -0.007 C 
HETATM    5  C   MOL     1     -43.012  -0.784  20.814  1.00  0.00     0.027 C 
HETATM    6  C   MOL     1     -43.763  -1.120  20.245  1.00  0.00    -0.005 C 
HETATM    7  C   MOL     1     -42.649   1.466  19.800  1.00  0.00    -0.037 A 
HETATM    8  C   MOL     1     -41.987   0.416  21.106  1.00  0.00     0.006 C 
HETATM    9  C   MOL     1     -41.589   1.972  19.708  1.00  0.00     0.013 A 
HETATM   10  C   MOL     1     -43.296   1.616  18.942  1.00  0.00     0.014 C 
HETATM   11  C   MOL     1     -43.243   2.709  19.873  1.00  0.00     0.081 C 
HETATM   12  C   MOL     1     -41.891   3.026  19.494  1.00  0.00    -0.024 A 
HETATM   13  C   MOL     1     -41.316   2.061  20.813  1.00  0.00    -0.033 A 
HETATM   14  C   MOL     1     -40.586   2.731  20.981  1.00  0.00    -0.030 A 
HETATM   15  C   MOL     1     -41.299   1.162  21.340  1.00  0.00     0.011 C 
HETATM   16  C   MOL     1     -41.481   2.015  22.181  1.00  0.00     0.044 C 
HETATM   17  C   MOL     1     -40.592   3.601  20.484  1.00  0.00    -0.018 A 
HETATM   18  C   MOL     1     -40.237   4.557  21.027  1.00  0.00    -0.002 C 
HETATM   19  C   MOL     1     -41.228   3.738  19.725  1.00  0.00    -0.036 C 
HETATM   20  C   MOL     1     -39.962   2.595  21.806  1.00  0.00     0.041 A 
HETATM   21  C   MOL     1     -39.273   4.237  21.534  1.00  0.00    -0.059 C 
HETATM   22  C   MOL     1     -39.896   5.263  20.126  1.00  0.00     0.003 C 
HETATM   23  C   MOL     1     -39.269   3.331  22.052  1.00  0.00     0.009 C 
HETATM   24  C   MOL     1     -38.518   4.983  21.759  1.00  0.00     0.014 C 
HETATM   25  C   MOL     1     -39.261   4.498  22.888  1.00  0.00     0.028 C 
HETATM   26  C   MOL     1     -38.488   5.905  21.186  1.00  0.00     0.253 A 
HETATM   27  C   MOL     1     -39.149   6.025  20.332  1.00  0.00     0.003 A 
HETATM   28  O   MOL     1     -38.041   7.289  20.749  1.00  0.00    -0.382 OA
HETATM   29  C   MOL     1     -38.881   6.195  18.990  1.00  0.00     0.044 C 
HETATM   30  C   MOL     1     -38.791   6.947  20.184  1.00  0.00     0.080 A 
HETATM   31  O   MOL     1     -39.150   7.509  19.438  1.00  0.00     0.000 OA
HETATM   32  C   MOL     1     -39.728   1.656  21.076  1.00  0.00     0.025 C 
HETATM   33  C   MOL     1     -44.021   0.854  18.678  1.00  0.00    -0.012 C 
HETATM   34  O   MOL     1     -42.529   3.164  18.734  1.00  0.00     0.000 OA
ENDBRANCH   1   2
BRANCH   1  35
HETATM   35  C   MOL     1     -45.709  -0.613  19.012  1.00  0.00    -0.027 A 
HETATM   36  O   MOL     1     -46.169  -0.350  19.862  1.00  0.00     0.000 OA
HETATM   37  C   MOL     1     -47.167  -0.279  19.891  1.00  0.00     0.096 A 
HETATM   38  C   MOL     1     -47.695  -0.376  19.041  1.00  0.00     0.133 A 
HETATM   39  C   MOL     1     -47.252  -0.782  18.236  1.00  0.00     0.055 A 
HETATM   40  O   MOL     1     -47.894  -1.876  17.695  1.00  0.00     0.000 OA
HETATM   41  C   MOL     1     -46.247  -0.805  18.191  1.00  0.00     0.007 A 
HETATM   42  H   MOL     1     -48.400  -0.853  17.410  1.00  0.00     0.000 HD
HETATM   43  O   MOL     1     -47.330  -1.237  16.566  1.00  0.00     0.000 OA
HETATM   44  C   MOL     1     -46.342  -1.403  16.566  1.00  0.00     0.057 A 
HETATM   45  C   MOL     1     -47.874  -1.477  15.760  1.00  0.00     0.071 C 
HETATM   46  O   MOL     1     -45.799  -1.163  17.372  1.00  0.00     0.000 OA
HETATM   47  C   MOL     1     -45.877  -1.619  15.701  1.00  0.00     0.154 A 
HETATM   48  C   MOL     1     -46.427  -1.906  14.910  1.00  0.00     0.211 A 
HETATM   49  C   MOL     1     -47.409  -1.693  14.896  1.00  0.00     0.146 C 
BRANCH  37  50
HETATM   50  C   MOL     1     -47.725  -0.870  21.006  1.00  0.00     0.297 C 
HETATM   51  O   MOL     1     -48.252   0.442  21.035  1.00  0.00    -0.188 OA
HETATM   52  O   MOL     1     -46.681  -0.082  21.543  1.00  0.00    -0.188 OA
ENDBRANCH  37  50
BRANCH  38  53
HETATM   53  O   MOL     1     -48.584   0.644  18.777  1.00  0.00    -0.395 OA
HETATM   54  H   MOL     1     -47.487   1.023  18.967  1.00  0.00     0.210 HD
ENDBRANCH  38  53
BRANCH  47  55
HETATM   55  O   MOL     1     -44.781  -0.835  15.407  1.00  0.00    -0.393 OA
HETATM   56  H   MOL     1     -44.793  -1.855  14.821  1.00  0.00     0.210 HD
ENDBRANCH  47  55
BRANCH  48  57
HETATM   57  O   MOL     1     -46.076  -3.119  14.355  1.00  0.00    -0.392 OA
HETATM   58  H   MOL     1     -45.190  -2.345  14.376  1.00  0.00     0.210 HD
ENDBRANCH  48  57
BRANCH  49  59
HETATM   59  O   MOL     1     -47.844  -0.983  13.796  1.00  0.00    -0.399 OA
HETATM   60  H   MOL     1     -47.998  -2.144  13.689  1.00  0.00     0.209 HD
ENDBRANCH  49  59
BRANCH  45  61
HETATM   61  C   MOL     1     -48.971  -2.261  16.054  1.00  0.00     0.292 C 
HETATM   62  O   MOL     1     -49.027  -2.137  14.647  1.00  0.00    -0.188 OA
HETATM   63  O   MOL     1     -49.534  -0.982  15.834  1.00  0.00    -0.188 OA
ENDBRANCH  45  61
ENDBRANCH   1  35
TORSDOF 8
ENDMDL
MODEL 2
REMARK VINA RESULT:     -11.0      1.954      3.057
REMARK  8 active torsions:
REMARK  status: ('A' for Active; 'I' for Inactive)
REMARK    1  A    between atoms: O_1  and  C_33 
REMARK    2  A    between atoms: O_1  and  C_49 
REMARK    3  A    between atoms: O_8  and  C_53 
REMARK    4  A    between atoms: O_12  and  C_56 
REMARK    5  A    between atoms: O_13  and  C_57 
REMARK    6  A    between atoms: O_14  and  C_59 
REMARK    7  A    between atoms: C_52  and  C_55 
REMARK    8  A    between atoms: C_58  and  C_60 
ROOT
HETATM    1  O   MOL     1     -46.893  -1.614  18.221  1.00  0.00     0.000 OA
ENDROOT
BRANCH   1   2
HETATM    2  C   MOL     1     -46.271  -0.986  18.691  1.00  0.00     0.007 C 
HETATM    3  C   MOL     1     -45.255  -0.854  18.327  1.00  0.00    -0.058 C 
HETATM    4  C   MOL     1     -44.745   0.216  18.476  1.00  0.00    -0.007 C 
HETATM    5  C   MOL     1     -44.507  -1.131  17.724  1.00  0.00     0.027 C 
HETATM    6  C   MOL     1     -45.403  -1.569  17.644  1.00  0.00    -0.005 C 
HETATM    7  C   MOL     1     -44.942   0.437  19.616  1.00  0.00    -0.037 A 
HETATM    8  C   MOL     1     -43.617  -0.038  18.491  1.00  0.00     0.006 C 
HETATM    9  C   MOL     1     -44.452   1.505  19.697  1.00  0.00     0.013 A 
HETATM   10  C   MOL     1     -45.980   0.392  19.930  1.00  0.00     0.014 C 
HETATM   11  C   MOL     1     -45.012   0.357  20.991  1.00  0.00     0.081 C 
HETATM   12  C   MOL     1     -44.655   1.734  20.773  1.00  0.00    -0.024 A 
HETATM   13  C   MOL     1     -43.350   1.213  19.758  1.00  0.00    -0.033 A 
HETATM   14  C   MOL     1     -42.773   1.947  20.130  1.00  0.00    -0.030 A 
HETATM   15  C   MOL     1     -42.993   0.657  18.953  1.00  0.00     0.011 C 
HETATM   16  C   MOL     1     -42.246   0.395  19.871  1.00  0.00     0.044 C 
HETATM   17  C   MOL     1     -43.102   2.487  20.907  1.00  0.00    -0.018 A 
HETATM   18  C   MOL     1     -42.345   2.837  21.706  1.00  0.00    -0.002 C 
HETATM   19  C   MOL     1     -44.050   2.398  21.211  1.00  0.00    -0.036 C 
HETATM   20  C   MOL     1     -41.774   1.995  19.836  1.00  0.00     0.041 A 
HETATM   21  C   MOL     1     -41.481   3.249  21.095  1.00  0.00    -0.059 C 
HETATM   22  C   MOL     1     -42.879   3.796  22.177  1.00  0.00     0.003 C 
HETATM   23  C   MOL     1     -41.138   2.684  20.288  1.00  0.00     0.009 C 
HETATM   24  C   MOL     1     -40.832   4.002  21.533  1.00  0.00     0.014 C 
HETATM   25  C   MOL     1     -40.266   2.685  21.428  1.00  0.00     0.028 C 
HETATM   26  C   MOL     1     -41.204   4.625  22.339  1.00  0.00     0.253 A 
HETATM   27  C   MOL     1     -42.249   4.556  22.630  1.00  0.00     0.003 A 
HETATM   28  O   MOL     1     -41.201   5.678  23.435  1.00  0.00    -0.382 OA
HETATM   29  C   MOL     1     -43.266   5.487  22.598  1.00  0.00     0.044 C 
HETATM   30  C   MOL     1     -42.094   5.236  23.349  1.00  0.00     0.080 A 
HETATM   31  O   MOL     1     -42.847   5.508  23.948  1.00  0.00     0.000 OA
HETATM   32  C   MOL     1     -42.409   2.214  18.827  1.00  0.00     0.025 C 
HETATM   33  C   MOL     1     -46.649  -0.324  19.464  1.00  0.00    -0.012 C 
HETATM   34  O   MOL     1     -45.605   1.644  21.077  1.00  0.00     0.000 OA
ENDBRANCH   1   2
BRANCH   1  35
HETATM   35  C   MOL     1     -47.883  -1.495  18.303  1.00  0.00    -0.027 A 
HETATM   36  O   MOL     1     -48.322  -1.577  19.200  1.00  0.00     0.000 OA
HETATM   37  C   MOL     1     -49.320  -1.557  19.274  1.00  0.00     0.096 A 
HETATM   38  C   MOL     1     -49.872  -1.355  18.459  1.00  0.00     0.133 A 
HETATM   39  C   MOL     1     -49.446  -1.422  17.552  1.00  0.00     0.055 A 
HETATM   40  O   MOL     1     -50.077  -2.264  16.661  1.00  0.00     0.000 OA
HETATM   41  C   MOL     1     -48.443  -1.392  17.480  1.00  0.00     0.007 A 
HETATM   42  H   MOL     1     -50.618  -1.226  16.781  1.00  0.00     0.000 HD
HETATM   43  O   MOL     1     -49.567  -1.237  15.833  1.00  0.00     0.000 OA
HETATM   44  C   MOL     1     -48.576  -1.357  15.751  1.00  0.00     0.057 A 
HETATM   45  C   MOL     1     -50.131  -1.184  15.007  1.00  0.00     0.071 C 
HETATM   46  O   MOL     1     -48.013  -1.409  16.577  1.00  0.00     0.000 OA
HETATM   47  C   MOL     1     -48.134  -1.224  14.858  1.00  0.00     0.154 A 
HETATM   48  C   MOL     1     -48.702  -1.221  14.029  1.00  0.00     0.211 A 
HETATM   49  C   MOL     1     -49.689  -1.052  14.114  1.00  0.00     0.146 C 
BRANCH  37  50
HETATM   50  C   MOL     1     -49.826  -2.535  20.105  1.00  0.00     0.297 C 
HETATM   51  O   MOL     1     -50.381  -1.343  20.627  1.00  0.00    -0.188 OA
HETATM   52  O   MOL     1     -48.783  -1.963  20.871  1.00  0.00    -0.188 OA
ENDBRANCH  37  50
BRANCH  38  53
HETATM   53  O   MOL     1     -50.795  -0.341  18.606  1.00  0.00    -0.395 OA
HETATM   54  H   MOL     1     -49.820  -0.003  18.041  1.00  0.00     0.210 HD
ENDBRANCH  38  53
BRANCH  47  55
HETATM   55  O   MOL     1     -47.068  -0.350  14.849  1.00  0.00    -0.393 OA
HETATM   56  H   MOL     1     -46.795  -1.409  15.281  1.00  0.00     0.210 HD
ENDBRANCH  47  55
BRANCH  48  57
HETATM   57  O   MOL     1     -48.339  -2.134  13.060  1.00  0.00    -0.392 OA
HETATM   58  H   MOL     1     -47.493  -1.352  13.301  1.00  0.00     0.210 HD
ENDBRANCH  48  57
BRANCH  49  59
HETATM   59  O   MOL     1     -50.177  -0.005  13.361  1.00  0.00    -0.399 OA
HETATM   60  H   MOL     1     -51.004  -0.784  13.664  1.00  0.00     0.209 HD
ENDBRANCH  49  59
BRANCH  45  61
HETATM   61  C   MOL     1     -51.198  -2.059  15.017  1.00  0.00     0.292 C 
HETATM   62  O   MOL     1     -51.318  -1.412  13.765  1.00  0.00    -0.188 OA
HETATM   63  O   MOL     1     -51.795  -0.814  15.319  1.00  0.00    -0.188 OA
ENDBRANCH  45  61
ENDBRANCH   1  35
TORSDOF 8
ENDMDL
MODEL 3
REMARK VINA RESULT:     -10.8      3.699      7.504
REMARK  8 active torsions:
REMARK  status: ('A' for Active; 'I' for Inactive)
REMARK    1  A    between atoms: O_1  and  C_33 
REMARK    2  A    between atoms: O_1  and  C_49 
REMARK    3  A    between atoms: O_8  and  C_53 
REMARK    4  A    between atoms: O_12  and  C_56 
REMARK    5  A    between atoms: O_13  and  C_57 
REMARK    6  A    between atoms: O_14  and  C_59 
REMARK    7  A    between atoms: C_52  and  C_55 
REMARK    8  A    between atoms: C_58  and  C_60 
ROOT
HETATM    1  O   MOL     1     -50.667  -0.938  14.581  1.00  0.00     0.000 OA
ENDROOT
BRANCH   1   2
HETATM    2  C   MOL     1     -49.846  -0.903  15.153  1.00  0.00     0.007 C 
HETATM    3  C   MOL     1     -48.945  -1.425  14.841  1.00  0.00    -0.058 C 
HETATM    4  C   MOL     1     -47.893  -0.955  15.154  1.00  0.00    -0.007 C 
HETATM    5  C   MOL     1     -48.482  -2.064  14.227  1.00  0.00     0.027 C 
HETATM    6  C   MOL     1     -49.435  -1.812  14.059  1.00  0.00    -0.005 C 
HETATM    7  C   MOL     1     -48.032  -0.762  16.308  1.00  0.00    -0.037 A 
HETATM    8  C   MOL     1     -47.194  -1.875  15.166  1.00  0.00     0.006 C 
HETATM    9  C   MOL     1     -46.988  -0.273  16.553  1.00  0.00     0.013 A 
HETATM   10  C   MOL     1     -48.889  -0.155  16.581  1.00  0.00     0.014 C 
HETATM   11  C   MOL     1     -48.292  -0.900  17.655  1.00  0.00     0.081 C 
HETATM   12  C   MOL     1     -47.120  -0.064  17.643  1.00  0.00    -0.024 A 
HETATM   13  C   MOL     1     -46.339  -1.210  16.605  1.00  0.00    -0.033 A 
HETATM   14  C   MOL     1     -45.474  -1.058  17.093  1.00  0.00    -0.030 A 
HETATM   15  C   MOL     1     -46.328  -1.791  15.740  1.00  0.00     0.011 C 
HETATM   16  C   MOL     1     -46.027  -2.553  16.633  1.00  0.00     0.044 C 
HETATM   17  C   MOL     1     -45.470  -0.505  17.928  1.00  0.00    -0.018 A 
HETATM   18  C   MOL     1     -44.759  -0.798  18.790  1.00  0.00    -0.002 C 
HETATM   19  C   MOL     1     -46.286   0.011  18.189  1.00  0.00    -0.036 C 
HETATM   20  C   MOL     1     -44.646  -1.639  16.838  1.00  0.00     0.041 A 
HETATM   21  C   MOL     1     -43.769  -0.988  18.269  1.00  0.00    -0.059 C 
HETATM   22  C   MOL     1     -44.612   0.232  19.376  1.00  0.00     0.003 C 
HETATM   23  C   MOL     1     -43.774  -1.566  17.401  1.00  0.00     0.009 C 
HETATM   24  C   MOL     1     -42.844  -0.873  18.828  1.00  0.00     0.014 C 
HETATM   25  C   MOL     1     -43.236  -2.228  18.555  1.00  0.00     0.028 C 
HETATM   26  C   MOL     1     -42.824  -0.231  19.703  1.00  0.00     0.253 A 
HETATM   27  C   MOL     1     -43.699   0.363  19.950  1.00  0.00     0.003 A 
HETATM   28  O   MOL     1     -42.278   0.469  20.936  1.00  0.00    -0.382 OA
HETATM   29  C   MOL     1     -43.882   1.728  20.020  1.00  0.00     0.044 C 
HETATM   30  C   MOL     1     -43.231   0.715  20.762  1.00  0.00     0.080 A 
HETATM   31  O   MOL     1     -43.701   1.354  21.372  1.00  0.00     0.000 OA
HETATM   32  C   MOL     1     -44.879  -0.973  15.852  1.00  0.00     0.025 C 
HETATM   33  C   MOL     1     -49.803  -0.226  16.000  1.00  0.00    -0.012 C 
HETATM   34  O   MOL     1     -47.937   0.452  17.904  1.00  0.00     0.000 OA
ENDBRANCH   1   2
BRANCH   1  35
HETATM   35  C   MOL     1     -51.571  -1.007  15.005  1.00  0.00    -0.027 A 
HETATM   36  O   MOL     1     -51.829  -1.845  15.491  1.00  0.00     0.000 OA
HETATM   37  C   MOL     1     -52.764  -1.960  15.831  1.00  0.00     0.096 A 
HETATM   38  C   MOL     1     -53.410  -1.193  15.770  1.00  0.00     0.133 A 
HETATM   39  C   MOL     1     -53.198  -0.424  15.158  1.00  0.00     0.055 A 
HETATM   40  O   MOL     1     -54.163  -0.133  14.216  1.00  0.00     0.000 OA
HETATM   41  C   MOL     1     -52.248  -0.286  14.859  1.00  0.00     0.007 A 
HETATM   42  H   MOL     1     -54.430   0.263  15.291  1.00  0.00     0.000 HD
HETATM   43  O   MOL     1     -53.617   1.134  14.526  1.00  0.00     0.000 OA
HETATM   44  C   MOL     1     -52.713   1.204  14.102  1.00  0.00     0.057 A 
HETATM   45  C   MOL     1     -54.309   1.833  14.339  1.00  0.00     0.071 C 
HETATM   46  O   MOL     1     -52.021   0.505  14.290  1.00  0.00     0.000 OA
HETATM   47  C   MOL     1     -52.440   2.064  13.658  1.00  0.00     0.154 A 
HETATM   48  C   MOL     1     -53.147   2.740  13.429  1.00  0.00     0.211 A 
HETATM   49  C   MOL     1     -54.036   2.693  13.895  1.00  0.00     0.146 C 
BRANCH  37  50
HETATM   50  C   MOL     1     -53.294  -3.205  15.563  1.00  0.00     0.297 C 
HETATM   51  O   MOL     1     -53.315  -3.139  16.975  1.00  0.00    -0.188 OA
HETATM   52  O   MOL     1     -51.965  -3.493  15.950  1.00  0.00    -0.188 OA
ENDBRANCH  37  50
BRANCH  38  53
HETATM   53  O   MOL     1     -54.042  -0.855  16.948  1.00  0.00    -0.395 OA
HETATM   54  H   MOL     1     -54.201  -0.063  16.093  1.00  0.00     0.210 HD
ENDBRANCH  38  53
BRANCH  47  55
HETATM   55  O   MOL     1     -51.233   2.587  14.073  1.00  0.00    -0.393 OA
HETATM   56  H   MOL     1     -52.154   3.260  14.361  1.00  0.00     0.210 HD
ENDBRANCH  47  55
BRANCH  48  57
HETATM   57  O   MOL     1     -53.193   3.123  12.105  1.00  0.00    -0.392 OA
HETATM   58  H   MOL     1     -52.318   3.632  12.706  1.00  0.00     0.210 HD
ENDBRANCH  48  57
BRANCH  49  59
HETATM   59  O   MOL     1     -54.426   3.845  14.546  1.00  0.00    -0.399 OA
HETATM   60  H   MOL     1     -54.822   2.864  15.061  1.00  0.00     0.209 HD
ENDBRANCH  49  59
BRANCH  45  61
HETATM   61  C   MOL     1     -55.517   1.310  13.925  1.00  0.00     0.292 C 
HETATM   62  O   MOL     1     -55.739   2.706  13.894  1.00  0.00    -0.188 OA
HETATM   63  O   MOL     1     -55.759   1.660  15.274  1.00  0.00    -0.188 OA
ENDBRANCH  45  61
ENDBRANCH   1  35
TORSDOF 8
ENDMDL
MODEL 4
REMARK VINA RESULT:     -10.8      2.615      4.641
REMARK  8 active torsions:
REMARK  status: ('A' for Active; 'I' for Inactive)
REMARK    1  A    between atoms: O_1  and  C_33 
REMARK    2  A    between atoms: O_1  and  C_49 
REMARK    3  A    between atoms: O_8  and  C_53 
REMARK    4  A    between atoms: O_12  and  C_56 
REMARK    5  A    between atoms: O_13  and  C_57 
REMARK    6  A    between atoms: O_14  and  C_59 
REMARK    7  A    between atoms: C_52  and  C_55 
REMARK    8  A    between atoms: C_58  and  C_60 
ROOT
HETATM    1  O   MOL     1     -47.023  -2.462  16.591  1.00  0.00     0.000 OA
ENDROOT
BRANCH   1   2
HETATM    2  C   MOL     1     -46.579  -1.853  17.250  1.00  0.00     0.007 C 
HETATM    3  C   MOL     1     -45.578  -1.480  17.056  1.00  0.00    -0.058 C 
HETATM    4  C   MOL     1     -45.296  -0.396  17.472  1.00  0.00    -0.007 C 
HETATM    5  C   MOL     1     -44.736  -1.495  16.515  1.00  0.00     0.027 C 
HETATM    6  C   MOL     1     -45.520  -2.048  16.235  1.00  0.00    -0.005 C 
HETATM    7  C   MOL     1     -45.639  -0.458  18.597  1.00  0.00    -0.037 A 
HETATM    8  C   MOL     1     -44.147  -0.455  17.587  1.00  0.00     0.006 C 
HETATM    9  C   MOL     1     -45.372   0.636  18.945  1.00  0.00     0.013 A 
HETATM   10  C   MOL     1     -46.675  -0.740  18.756  1.00  0.00     0.014 C 
HETATM   11  C   MOL     1     -45.825  -0.838  19.910  1.00  0.00     0.081 C 
HETATM   12  C   MOL     1     -45.717   0.594  20.008  1.00  0.00    -0.024 A 
HETATM   13  C   MOL     1     -44.246   0.525  19.094  1.00  0.00    -0.033 A 
HETATM   14  C   MOL     1     -43.857   1.249  19.673  1.00  0.00    -0.030 A 
HETATM   15  C   MOL     1     -43.714   0.220  18.252  1.00  0.00     0.011 C 
HETATM   16  C   MOL     1     -43.022  -0.102  19.194  1.00  0.00     0.044 C 
HETATM   17  C   MOL     1     -44.355   1.550  20.488  1.00  0.00    -0.018 A 
HETATM   18  C   MOL     1     -43.758   1.844  21.432  1.00  0.00    -0.002 C 
HETATM   19  C   MOL     1     -45.294   1.242  20.641  1.00  0.00    -0.036 C 
HETATM   20  C   MOL     1     -42.861   1.524  19.528  1.00  0.00     0.041 A 
HETATM   21  C   MOL     1     -42.933   2.514  21.031  1.00  0.00    -0.059 C 
HETATM   22  C   MOL     1     -44.507   2.579  22.003  1.00  0.00     0.003 C 
HETATM   23  C   MOL     1     -42.414   2.198  20.183  1.00  0.00     0.009 C 
HETATM   24  C   MOL     1     -42.484   3.254  21.686  1.00  0.00     0.014 C 
HETATM   25  C   MOL     1     -41.672   2.103  21.407  1.00  0.00     0.028 C 
HETATM   26  C   MOL     1     -43.044   3.622  22.540  1.00  0.00     0.253 A 
HETATM   27  C   MOL     1     -44.079   3.320  22.672  1.00  0.00     0.003 A 
HETATM   28  O   MOL     1     -43.346   4.404  23.808  1.00  0.00    -0.382 OA
HETATM   29  C   MOL     1     -45.247   4.054  22.684  1.00  0.00     0.044 C 
HETATM   30  C   MOL     1     -44.126   3.848  23.521  1.00  0.00     0.080 A 
HETATM   31  O   MOL     1     -44.970   3.858  24.057  1.00  0.00     0.000 OA
HETATM   32  C   MOL     1     -43.428   1.843  18.505  1.00  0.00     0.025 C 
HETATM   33  C   MOL     1     -47.149  -1.443  18.078  1.00  0.00    -0.012 C 
HETATM   34  O   MOL     1     -46.656   0.285  20.161  1.00  0.00     0.000 OA
ENDBRANCH   1   2
BRANCH   1  35
HETATM   35  C   MOL     1     -47.897  -2.893  16.815  1.00  0.00    -0.027 A 
HETATM   36  O   MOL     1     -47.913  -3.725  17.374  1.00  0.00     0.000 OA
HETATM   37  C   MOL     1     -48.774  -4.216  17.520  1.00  0.00     0.096 A 
HETATM   38  C   MOL     1     -49.634  -3.816  17.186  1.00  0.00     0.133 A 
HETATM   39  C   MOL     1     -49.596  -3.074  16.510  1.00  0.00     0.055 A 
HETATM   40  O   MOL     1     -50.302  -3.297  15.346  1.00  0.00     0.000 OA
HETATM   41  C   MOL     1     -48.743  -2.553  16.403  1.00  0.00     0.007 A 
HETATM   42  H   MOL     1     -50.986  -2.989  16.252  1.00  0.00     0.000 HD
HETATM   43  O   MOL     1     -50.425  -1.901  15.539  1.00  0.00     0.000 OA
HETATM   44  C   MOL     1     -49.550  -1.470  15.314  1.00  0.00     0.057 A 
HETATM   45  C   MOL     1     -51.263  -1.590  15.087  1.00  0.00     0.071 C 
HETATM   46  O   MOL     1     -48.713  -1.781  15.767  1.00  0.00     0.000 OA
HETATM   47  C   MOL     1     -49.542  -0.609  14.796  1.00  0.00     0.154 A 
HETATM   48  C   MOL     1     -50.373  -0.328  14.305  1.00  0.00     0.211 A 
HETATM   49  C   MOL     1     -51.255  -0.730  14.569  1.00  0.00     0.146 C 
BRANCH  37  50
HETATM   50  C   MOL     1     -48.657  -5.581  17.366  1.00  0.00     0.297 C 
HETATM   51  O   MOL     1     -48.969  -5.433  18.737  1.00  0.00    -0.188 OA
HETATM   52  O   MOL     1     -47.432  -5.215  17.969  1.00  0.00    -0.188 OA
ENDBRANCH  37  50
BRANCH  38  53
HETATM   53  O   MOL     1     -50.641  -3.713  18.123  1.00  0.00    -0.395 OA
HETATM   54  H   MOL     1     -49.703  -4.306  18.514  1.00  0.00     0.210 HD
ENDBRANCH  38  53
BRANCH  47  55
HETATM   55  O   MOL     1     -48.814   0.416  15.362  1.00  0.00    -0.393 OA
HETATM   56  H   MOL     1     -49.225   0.676  14.291  1.00  0.00     0.210 HD
ENDBRANCH  47  55
BRANCH  48  57
HETATM   57  O   MOL     1     -50.211  -0.091  12.956  1.00  0.00    -0.392 OA
HETATM   58  H   MOL     1     -51.186   0.397  13.399  1.00  0.00     0.210 HD
ENDBRANCH  48  57
BRANCH  49  59
HETATM   59  O   MOL     1     -52.239   0.175  14.908  1.00  0.00    -0.399 OA
HETATM   60  H   MOL     1     -52.664  -0.872  14.583  1.00  0.00     0.209 HD
ENDBRANCH  49  59
BRANCH  45  61
HETATM   61  C   MOL     1     -51.992  -2.616  14.522  1.00  0.00     0.292 C 
HETATM   62  O   MOL     1     -52.734  -1.462  14.179  1.00  0.00    -0.188 OA
HETATM   63  O   MOL     1     -52.722  -2.305  15.692  1.00  0.00    -0.188 OA
ENDBRANCH  45  61
ENDBRANCH   1  35
TORSDOF 8
ENDMDL
MODEL 5
REMARK VINA RESULT:     -10.0      1.264      2.856
REMARK  8 active torsions:
REMARK  status: ('A' for Active; 'I' for Inactive)
REMARK    1  A    between atoms: O_1  and  C_33 
REMARK    2  A    between atoms: O_1  and  C_49 
REMARK    3  A    between atoms: O_8  and  C_53 
REMARK    4  A    between atoms: O_12  and  C_56 
REMARK    5  A    between atoms: O_13  and  C_57 
REMARK    6  A    between atoms: O_14  and  C_59 
REMARK    7  A    between atoms: C_52  and  C_55 
REMARK    8  A    between atoms: C_58  and  C_60 
ROOT
HETATM    1  O   MOL     1     -45.742  -1.022  18.385  1.00  0.00     0.000 OA
ENDROOT
BRANCH   1   2
HETATM    2  C   MOL     1     -45.062  -0.346  18.669  1.00  0.00     0.007 C 
HETATM    3  C   MOL     1     -44.416  -0.549  19.520  1.00  0.00    -0.058 C 
HETATM    4  C   MOL     1     -43.316  -0.084  19.507  1.00  0.00    -0.007 C 
HETATM    5  C   MOL     1     -44.174  -1.113  20.309  1.00  0.00     0.027 C 
HETATM    6  C   MOL     1     -44.911  -1.399  19.698  1.00  0.00    -0.005 C 
HETATM    7  C   MOL     1     -43.518   1.045  19.242  1.00  0.00    -0.037 A 
HETATM    8  C   MOL     1     -43.058  -0.006  20.631  1.00  0.00     0.006 C 
HETATM    9  C   MOL     1     -42.409   1.441  19.211  1.00  0.00     0.013 A 
HETATM   10  C   MOL     1     -44.084   1.219  18.332  1.00  0.00     0.014 C 
HETATM   11  C   MOL     1     -43.989   2.341  19.224  1.00  0.00     0.081 C 
HETATM   12  C   MOL     1     -42.589   2.510  18.935  1.00  0.00    -0.024 A 
HETATM   13  C   MOL     1     -42.207   1.553  20.328  1.00  0.00    -0.033 A 
HETATM   14  C   MOL     1     -41.429   2.157  20.525  1.00  0.00    -0.030 A 
HETATM   15  C   MOL     1     -42.317   0.681  20.888  1.00  0.00     0.011 C 
HETATM   16  C   MOL     1     -42.473   1.584  21.681  1.00  0.00     0.044 C 
HETATM   17  C   MOL     1     -41.313   3.000  19.998  1.00  0.00    -0.018 A 
HETATM   18  C   MOL     1     -40.904   3.941  20.529  1.00  0.00    -0.002 C 
HETATM   19  C   MOL     1     -41.877   3.164  19.189  1.00  0.00    -0.036 C 
HETATM   20  C   MOL     1     -40.881   1.998  21.399  1.00  0.00     0.041 A 
HETATM   21  C   MOL     1     -40.015   3.552  21.119  1.00  0.00    -0.059 C 
HETATM   22  C   MOL     1     -40.432   4.570  19.631  1.00  0.00     0.003 C 
HETATM   23  C   MOL     1     -40.138   2.674  21.669  1.00  0.00     0.009 C 
HETATM   24  C   MOL     1     -39.207   4.232  21.372  1.00  0.00     0.014 C 
HETATM   25  C   MOL     1     -40.073   3.870  22.459  1.00  0.00     0.028 C 
HETATM   26  C   MOL     1     -39.046   5.119  20.769  1.00  0.00     0.253 A 
HETATM   27  C   MOL     1     -39.630   5.265  19.864  1.00  0.00     0.003 A 
HETATM   28  O   MOL     1     -38.433   6.434  20.315  1.00  0.00    -0.382 OA
HETATM   29  C   MOL     1     -39.252   5.348  18.540  1.00  0.00     0.044 C 
HETATM   30  C   MOL     1     -39.172   6.141  19.709  1.00  0.00     0.080 A 
HETATM   31  O   MOL     1     -39.420   6.701  18.918  1.00  0.00     0.000 OA
HETATM   32  C   MOL     1     -40.690   1.009  20.724  1.00  0.00     0.025 C 
HETATM   33  C   MOL     1     -44.861   0.519  18.044  1.00  0.00    -0.012 C 
HETATM   34  O   MOL     1     -43.154   2.674  18.125  1.00  0.00     0.000 OA
ENDBRANCH   1   2
BRANCH   1  35
HETATM   35  C   MOL     1     -45.835  -1.265  17.419  1.00  0.00    -0.027 A 
HETATM   36  O   MOL     1     -45.018  -1.472  16.877  1.00  0.00     0.000 OA
HETATM   37  C   MOL     1     -45.094  -1.618  15.889  1.00  0.00     0.096 A 
HETATM   38  C   MOL     1     -46.003  -1.655  15.464  1.00  0.00     0.133 A 
HETATM   39  C   MOL     1     -46.795  -1.305  15.974  1.00  0.00     0.055 A 
HETATM   40  O   MOL     1     -47.529  -0.330  15.331  1.00  0.00     0.000 OA
HETATM   41  C   MOL     1     -46.728  -1.206  16.972  1.00  0.00     0.007 A 
HETATM   42  H   MOL     1     -47.749  -1.414  14.932  1.00  0.00     0.000 HD
HETATM   43  O   MOL     1     -48.505  -1.039  16.069  1.00  0.00     0.000 OA
HETATM   44  C   MOL     1     -48.413  -0.796  17.036  1.00  0.00     0.057 A 
HETATM   45  C   MOL     1     -49.390  -0.932  15.612  1.00  0.00     0.071 C 
HETATM   46  O   MOL     1     -47.528  -0.904  17.492  1.00  0.00     0.000 OA
HETATM   47  C   MOL     1     -49.238  -0.638  17.587  1.00  0.00     0.154 A 
HETATM   48  C   MOL     1     -50.114  -0.483  17.120  1.00  0.00     0.211 A 
HETATM   49  C   MOL     1     -50.215  -0.774  16.163  1.00  0.00     0.146 C 
BRANCH  37  50
HETATM   50  C   MOL     1     -44.126  -0.957  15.162  1.00  0.00     0.297 C 
HETATM   51  O   MOL     1     -44.209  -2.216  14.525  1.00  0.00    -0.188 OA
HETATM   52  O   MOL     1     -43.376  -1.822  15.992  1.00  0.00    -0.188 OA
ENDBRANCH  37  50
BRANCH  38  53
HETATM   53  O   MOL     1     -46.247  -2.766  14.683  1.00  0.00    -0.395 OA
HETATM   54  H   MOL     1     -46.329  -1.754  14.088  1.00  0.00     0.210 HD
ENDBRANCH  38  53
BRANCH  47  55
HETATM   55  O   MOL     1     -49.313  -1.359  18.760  1.00  0.00    -0.393 OA
HETATM   56  H   MOL     1     -49.030  -2.019  17.828  1.00  0.00     0.210 HD
ENDBRANCH  47  55
BRANCH  48  57
HETATM   57  O   MOL     1     -50.764   0.687  17.454  1.00  0.00    -0.392 OA
HETATM   58  H   MOL     1     -51.154  -0.248  18.052  1.00  0.00     0.210 HD
ENDBRANCH  48  57
BRANCH  49  59
HETATM   59  O   MOL     1     -51.267  -1.630  15.913  1.00  0.00    -0.399 OA
HETATM   60  H   MOL     1     -51.524  -0.799  16.704  1.00  0.00     0.209 HD
ENDBRANCH  49  59
BRANCH  45  61
HETATM   61  C   MOL     1     -49.315  -0.211  14.438  1.00  0.00     0.292 C 
HETATM   62  O   MOL     1     -50.691  -0.515  14.546  1.00  0.00    -0.188 OA
HETATM   63  O   MOL     1     -49.417  -1.549  13.992  1.00  0.00    -0.188 OA
ENDBRANCH  45  61
ENDBRANCH   1  35
TORSDOF 8
ENDMDL
MODEL 6
REMARK VINA RESULT:      -9.9      3.390      7.133
REMARK  8 active torsions:
REMARK  status: ('A' for Active; 'I' for Inactive)
REMARK    1  A    between atoms: O_1  and  C_33 
REMARK    2  A    between atoms: O_1  and  C_49 
REMARK    3  A    between atoms: O_8  and  C_53 
REMARK    4  A    between atoms: O_12  and  C_56 
REMARK    5  A    between atoms: O_13  and  C_57 
REMARK    6  A    between atoms: O_14  and  C_59 
REMARK    7  A    between atoms: C_52  and  C_55 
REMARK    8  A    between atoms: C_58  and  C_60 
ROOT
HETATM    1  O   MOL     1     -50.186  -1.563  14.251  1.00  0.00     0.000 OA
ENDROOT
BRANCH   1   2
HETATM    2  C   MOL     1     -49.412  -1.403  14.865  1.00  0.00     0.007 C 
HETATM    3  C   MOL     1     -48.511  -2.003  14.771  1.00  0.00    -0.058 C 
HETATM    4  C   MOL     1     -47.468  -1.491  15.048  1.00  0.00    -0.007 C 
HETATM    5  C   MOL     1     -48.027  -2.785  14.378  1.00  0.00     0.027 C 
HETATM    6  C   MOL     1     -48.953  -2.564  14.071  1.00  0.00    -0.005 C 
HETATM    7  C   MOL     1     -47.689  -1.012  16.101  1.00  0.00    -0.037 A 
HETATM    8  C   MOL     1     -46.810  -2.393  15.348  1.00  0.00     0.006 C 
HETATM    9  C   MOL     1     -46.649  -0.498  16.306  1.00  0.00     0.013 A 
HETATM   10  C   MOL     1     -48.540  -0.339  16.140  1.00  0.00     0.014 C 
HETATM   11  C   MOL     1     -48.060  -0.802  17.413  1.00  0.00     0.081 C 
HETATM   12  C   MOL     1     -46.858  -0.020  17.295  1.00  0.00    -0.024 A 
HETATM   13  C   MOL     1     -46.044  -1.405  16.644  1.00  0.00    -0.033 A 
HETATM   14  C   MOL     1     -45.215  -1.152  17.153  1.00  0.00    -0.030 A 
HETATM   15  C   MOL     1     -45.989  -2.184  15.955  1.00  0.00     0.011 C 
HETATM   16  C   MOL     1     -45.791  -2.704  17.032  1.00  0.00     0.044 C 
HETATM   17  C   MOL     1     -45.254  -0.408  17.821  1.00  0.00    -0.018 A 
HETATM   18  C   MOL     1     -44.626  -0.490  18.787  1.00  0.00    -0.002 C 
HETATM   19  C   MOL     1     -46.066   0.173  17.875  1.00  0.00    -0.036 C 
HETATM   20  C   MOL     1     -44.394  -1.795  17.122  1.00  0.00     0.041 A 
HETATM   21  C   MOL     1     -43.606  -0.824  18.417  1.00  0.00    -0.059 C 
HETATM   22  C   MOL     1     -44.483   0.651  19.110  1.00  0.00     0.003 C 
HETATM   23  C   MOL     1     -43.566  -1.601  17.722  1.00  0.00     0.009 C 
HETATM   24  C   MOL     1     -42.724  -0.591  19.007  1.00  0.00     0.014 C 
HETATM   25  C   MOL     1     -43.148  -1.963  19.046  1.00  0.00     0.028 C 
HETATM   26  C   MOL     1     -42.747   0.249  19.694  1.00  0.00     0.253 A 
HETATM   27  C   MOL     1     -43.613   0.904  19.710  1.00  0.00     0.003 A 
HETATM   28  O   MOL     1     -42.271   1.225  20.757  1.00  0.00    -0.382 OA
HETATM   29  C   MOL     1     -43.745   2.247  19.423  1.00  0.00     0.044 C 
HETATM   30  C   MOL     1     -43.197   1.439  20.445  1.00  0.00     0.080 A 
HETATM   31  O   MOL     1     -43.686   2.219  20.835  1.00  0.00     0.000 OA
HETATM   32  C   MOL     1     -44.521  -1.393  15.985  1.00  0.00     0.025 C 
HETATM   33  C   MOL     1     -49.407  -0.535  15.518  1.00  0.00    -0.012 C 
HETATM   34  O   MOL     1     -47.671   0.561  17.348  1.00  0.00     0.000 OA
ENDBRANCH   1   2
BRANCH   1  35
HETATM   35  C   MOL     1     -51.060  -1.105  14.416  1.00  0.00    -0.027 A 
HETATM   36  O   MOL     1     -51.182  -0.151  14.138  1.00  0.00     0.000 OA
HETATM   37  C   MOL     1     -52.017   0.343  14.387  1.00  0.00     0.096 A 
HETATM   38  C   MOL     1     -52.770  -0.153  14.831  1.00  0.00     0.133 A 
HETATM   39  C   MOL     1     -52.589  -1.054  15.236  1.00  0.00     0.055 A 
HETATM   40  O   MOL     1     -52.923  -1.182  16.568  1.00  0.00     0.000 OA
HETATM   41  C   MOL     1     -51.774  -1.566  14.944  1.00  0.00     0.007 A 
HETATM   42  H   MOL     1     -53.852  -1.238  15.850  1.00  0.00     0.000 HD
HETATM   43  O   MOL     1     -53.181  -2.470  16.042  1.00  0.00     0.000 OA
HETATM   44  C   MOL     1     -52.307  -2.928  15.877  1.00  0.00     0.057 A 
HETATM   45  C   MOL     1     -53.875  -2.913  16.612  1.00  0.00     0.071 C 
HETATM   46  O   MOL     1     -51.614  -2.484  15.307  1.00  0.00     0.000 OA
HETATM   47  C   MOL     1     -52.206  -3.900  16.113  1.00  0.00     0.154 A 
HETATM   48  C   MOL     1     -52.879  -4.325  16.726  1.00  0.00     0.211 A 
HETATM   49  C   MOL     1     -53.774  -3.884  16.848  1.00  0.00     0.146 C 
BRANCH  37  50
HETATM   50  C   MOL     1     -51.777   1.612  14.871  1.00  0.00     0.297 C 
HETATM   51  O   MOL     1     -52.802   1.814  13.918  1.00  0.00    -0.188 OA
HETATM   52  O   MOL     1     -51.108   1.606  13.626  1.00  0.00    -0.188 OA
ENDBRANCH  37  50
BRANCH  38  53
HETATM   53  O   MOL     1     -54.005  -0.009  14.233  1.00  0.00    -0.395 OA
HETATM   54  H   MOL     1     -53.999   0.306  15.367  1.00  0.00     0.210 HD
ENDBRANCH  38  53
BRANCH  47  55
HETATM   55  O   MOL     1     -51.731  -4.709  15.101  1.00  0.00    -0.393 OA
HETATM   56  H   MOL     1     -51.328  -5.010  16.165  1.00  0.00     0.210 HD
ENDBRANCH  47  55
BRANCH  48  57
HETATM   57  O   MOL     1     -52.358  -4.929  17.851  1.00  0.00    -0.392 OA
HETATM   58  H   MOL     1     -51.846  -5.286  16.853  1.00  0.00     0.210 HD
ENDBRANCH  48  57
BRANCH  49  59
HETATM   59  O   MOL     1     -54.868  -4.678  16.571  1.00  0.00    -0.399 OA
HETATM   60  H   MOL     1     -54.163  -5.131  17.396  1.00  0.00     0.209 HD
ENDBRANCH  49  59
BRANCH  45  61
HETATM   61  C   MOL     1     -54.350  -2.103  17.624  1.00  0.00     0.292 C 
HETATM   62  O   MOL     1     -55.054  -3.314  17.817  1.00  0.00    -0.188 OA
HETATM   63  O   MOL     1     -55.387  -2.066  16.663  1.00  0.00    -0.188 OA
ENDBRANCH  45  61
ENDBRANCH   1  35
TORSDOF 8
ENDMDL
MODEL 7
REMARK VINA RESULT:      -9.6      3.065      5.610
REMARK  8 active torsions:
REMARK  status: ('A' for Active; 'I' for Inactive)
REMARK    1  A    between atoms: O_1  and  C_33 
REMARK    2  A    between atoms: O_1  and  C_49 
REMARK    3  A    between atoms: O_8  and  C_53 
REMARK    4  A    between atoms: O_12  and  C_56 
REMARK    5  A    between atoms: O_13  and  C_57 
REMARK    6  A    between atoms: O_14  and  C_59 
REMARK    7  A    between atoms: C_52  and  C_55 
REMARK    8  A    between atoms: C_58  and  C_60 
ROOT
HETATM    1  O   MOL     1     -47.371  -2.360  15.463  1.00  0.00     0.000 OA
ENDROOT
BRANCH   1   2
HETATM    2  C   MOL     1     -46.999  -1.823  16.223  1.00  0.00     0.007 C 
HETATM    3  C   MOL     1     -45.951  -1.539  16.225  1.00  0.00    -0.058 C 
HETATM    4  C   MOL     1     -45.655  -0.505  16.746  1.00  0.00    -0.007 C 
HETATM    5  C   MOL     1     -45.032  -1.610  15.837  1.00  0.00     0.027 C 
HETATM    6  C   MOL     1     -45.799  -2.075  15.395  1.00  0.00    -0.005 C 
HETATM    7  C   MOL     1     -46.195  -0.582  17.790  1.00  0.00    -0.037 A 
HETATM    8  C   MOL     1     -44.554  -0.678  17.053  1.00  0.00     0.006 C 
HETATM    9  C   MOL     1     -45.900   0.466  18.242  1.00  0.00     0.013 A 
HETATM   10  C   MOL     1     -47.263  -0.772  17.753  1.00  0.00     0.014 C 
HETATM   11  C   MOL     1     -46.641  -0.998  19.028  1.00  0.00     0.081 C 
HETATM   12  C   MOL     1     -46.429   0.412  19.226  1.00  0.00    -0.024 A 
HETATM   13  C   MOL     1     -44.832   0.243  18.576  1.00  0.00    -0.033 A 
HETATM   14  C   MOL     1     -44.490   0.902  19.253  1.00  0.00    -0.030 A 
HETATM   15  C   MOL     1     -44.188  -0.076  17.821  1.00  0.00     0.011 C 
HETATM   16  C   MOL     1     -43.703  -0.502  18.847  1.00  0.00     0.044 C 
HETATM   17  C   MOL     1     -45.097   1.214  19.987  1.00  0.00    -0.018 A 
HETATM   18  C   MOL     1     -44.652   1.409  21.035  1.00  0.00    -0.002 C 
HETATM   19  C   MOL     1     -46.070   0.989  19.959  1.00  0.00    -0.036 C 
HETATM   20  C   MOL     1     -43.465   1.087  19.298  1.00  0.00     0.041 A 
HETATM   21  C   MOL     1     -43.715   2.014  20.821  1.00  0.00    -0.059 C 
HETATM   22  C   MOL     1     -45.424   2.186  21.511  1.00  0.00     0.003 C 
HETATM   23  C   MOL     1     -43.084   1.687  20.058  1.00  0.00     0.009 C 
HETATM   24  C   MOL     1     -43.327   2.680  21.586  1.00  0.00     0.014 C 
HETATM   25  C   MOL     1     -42.580   1.470  21.384  1.00  0.00     0.028 C 
HETATM   26  C   MOL     1     -43.995   3.063  22.351  1.00  0.00     0.253 A 
HETATM   27  C   MOL     1     -45.059   2.855  22.285  1.00  0.00     0.003 A 
HETATM   28  O   MOL     1     -44.447   3.815  23.592  1.00  0.00    -0.382 OA
HETATM   29  C   MOL     1     -46.143   3.694  22.140  1.00  0.00     0.044 C 
HETATM   30  C   MOL     1     -45.209   3.348  23.143  1.00  0.00     0.080 A 
HETATM   31  O   MOL     1     -46.130   3.415  23.526  1.00  0.00     0.000 OA
HETATM   32  C   MOL     1     -43.813   1.501  18.213  1.00  0.00     0.025 C 
HETATM   33  C   MOL     1     -47.668  -1.397  16.964  1.00  0.00    -0.012 C 
HETATM   34  O   MOL     1     -47.404   0.186  19.197  1.00  0.00     0.000 OA
ENDBRANCH   1   2
BRANCH   1  35
HETATM   35  C   MOL     1     -48.263  -2.128  15.074  1.00  0.00    -0.027 A 
HETATM   36  O   MOL     1     -48.365  -1.297  14.524  1.00  0.00     0.000 OA
HETATM   37  C   MOL     1     -49.272  -1.008  14.215  1.00  0.00     0.096 A 
HETATM   38  C   MOL     1     -50.063  -1.607  14.375  1.00  0.00     0.133 A 
HETATM   39  C   MOL     1     -49.984  -2.351  15.046  1.00  0.00     0.055 A 
HETATM   40  O   MOL     1     -50.928  -2.346  16.051  1.00  0.00     0.000 OA
HETATM   41  C   MOL     1     -49.068  -2.670  15.315  1.00  0.00     0.007 A 
HETATM   42  H   MOL     1     -51.339  -2.760  15.030  1.00  0.00     0.000 HD
HETATM   43  O   MOL     1     -50.687  -3.724  15.836  1.00  0.00     0.000 OA
HETATM   44  C   MOL     1     -49.794  -3.956  16.226  1.00  0.00     0.057 A 
HETATM   45  C   MOL     1     -51.500  -4.236  16.117  1.00  0.00     0.071 C 
HETATM   46  O   MOL     1     -48.982  -3.442  15.944  1.00  0.00     0.000 OA
HETATM   47  C   MOL     1     -49.685  -4.815  16.735  1.00  0.00     0.154 A 
HETATM   48  C   MOL     1     -50.505  -5.299  17.056  1.00  0.00     0.211 A 
HETATM   49  C   MOL     1     -51.391  -5.096  16.627  1.00  0.00     0.146 C 
BRANCH  37  50
HETATM   50  C   MOL     1     -49.505   0.340  14.390  1.00  0.00     0.297 C 
HETATM   51  O   MOL     1     -50.109   0.064  13.141  1.00  0.00    -0.188 OA
HETATM   52  O   MOL     1     -48.427   0.312  13.476  1.00  0.00    -0.188 OA
ENDBRANCH  37  50
BRANCH  38  53
HETATM   53  O   MOL     1     -50.825  -1.892  13.261  1.00  0.00    -0.395 OA
HETATM   54  H   MOL     1     -50.254  -0.867  13.182  1.00  0.00     0.210 HD
ENDBRANCH  38  53
BRANCH  47  55
HETATM   55  O   MOL     1     -48.646  -5.622  16.319  1.00  0.00    -0.393 OA
HETATM   56  H   MOL     1     -49.293  -6.103  17.177  1.00  0.00     0.210 HD
ENDBRANCH  47  55
BRANCH  48  57
HETATM   57  O   MOL     1     -50.549  -5.555  18.411  1.00  0.00    -0.392 OA
HETATM   58  H   MOL     1     -50.727  -4.422  18.147  1.00  0.00     0.210 HD
ENDBRANCH  48  57
BRANCH  49  59
HETATM   59  O   MOL     1     -52.058  -6.183  16.102  1.00  0.00    -0.399 OA
HETATM   60  H   MOL     1     -52.629  -5.676  16.996  1.00  0.00     0.209 HD
ENDBRANCH  49  59
BRANCH  45  61
HETATM   61  C   MOL     1     -52.539  -3.429  16.532  1.00  0.00     0.292 C 
HETATM   62  O   MOL     1     -53.056  -4.735  16.694  1.00  0.00    -0.188 OA
HETATM   63  O   MOL     1     -52.930  -3.819  15.230  1.00  0.00    -0.188 OA
ENDBRANCH  45  61
ENDBRANCH   1  35
TORSDOF 8
ENDMDL
MODEL 8
REMARK VINA RESULT:      -8.9      4.197      8.296
REMARK  8 active torsions:
REMARK  status: ('A' for Active; 'I' for Inactive)
REMARK    1  A    between atoms: O_1  and  C_33 
REMARK    2  A    between atoms: O_1  and  C_49 
REMARK    3  A    between atoms: O_8  and  C_53 
REMARK    4  A    between atoms: O_12  and  C_56 
REMARK    5  A    between atoms: O_13  and  C_57 
REMARK    6  A    between atoms: O_14  and  C_59 
REMARK    7  A    between atoms: C_52  and  C_55 
REMARK    8  A    between atoms: C_58  and  C_60 
ROOT
HETATM    1  O   MOL     1     -51.514  -3.082  15.144  1.00  0.00     0.000 OA
ENDROOT
BRANCH   1   2
HETATM    2  C   MOL     1     -50.693  -2.714  15.584  1.00  0.00     0.007 C 
HETATM    3  C   MOL     1     -49.737  -2.757  15.071  1.00  0.00    -0.058 C 
HETATM    4  C   MOL     1     -48.951  -1.882  15.282  1.00  0.00    -0.007 C 
HETATM    5  C   MOL     1     -49.173  -3.085  14.312  1.00  0.00     0.027 C 
HETATM    6  C   MOL     1     -50.154  -3.279  14.327  1.00  0.00    -0.005 C 
HETATM    7  C   MOL     1     -48.930  -1.836  16.459  1.00  0.00    -0.037 A 
HETATM    8  C   MOL     1     -47.936  -2.390  15.062  1.00  0.00     0.006 C 
HETATM    9  C   MOL     1     -48.174  -0.945  16.608  1.00  0.00     0.013 A 
HETATM   10  C   MOL     1     -49.893  -1.695  16.939  1.00  0.00     0.014 C 
HETATM   11  C   MOL     1     -48.835  -2.150  17.799  1.00  0.00     0.081 C 
HETATM   12  C   MOL     1     -48.166  -0.878  17.724  1.00  0.00    -0.024 A 
HETATM   13  C   MOL     1     -47.188  -1.492  16.432  1.00  0.00    -0.033 A 
HETATM   14  C   MOL     1     -46.396  -0.994  16.800  1.00  0.00    -0.030 A 
HETATM   15  C   MOL     1     -47.097  -1.957  15.504  1.00  0.00     0.011 C 
HETATM   16  C   MOL     1     -46.328  -2.551  16.229  1.00  0.00     0.044 C 
HETATM   17  C   MOL     1     -46.467  -0.545  17.692  1.00  0.00    -0.018 A 
HETATM   18  C   MOL     1     -45.545  -0.536  18.388  1.00  0.00    -0.002 C 
HETATM   19  C   MOL     1     -47.356  -0.466  18.142  1.00  0.00    -0.036 C 
HETATM   20  C   MOL     1     -45.466  -1.127  16.345  1.00  0.00     0.041 A 
HETATM   21  C   MOL     1     -44.693  -0.231  17.702  1.00  0.00    -0.059 C 
HETATM   22  C   MOL     1     -45.744   0.417  19.081  1.00  0.00     0.003 C 
HETATM   23  C   MOL     1     -44.619  -0.701  16.774  1.00  0.00     0.009 C 
HETATM   24  C   MOL     1     -43.819   0.256  18.125  1.00  0.00     0.014 C 
HETATM   25  C   MOL     1     -43.633  -1.113  17.732  1.00  0.00     0.028 C 
HETATM   26  C   MOL     1     -43.906   0.789  19.066  1.00  0.00     0.253 A 
HETATM   27  C   MOL     1     -44.884   0.913  19.522  1.00  0.00     0.003 A 
HETATM   28  O   MOL     1     -43.484   1.591  20.286  1.00  0.00    -0.382 OA
HETATM   29  C   MOL     1     -45.620   2.044  19.805  1.00  0.00     0.044 C 
HETATM   30  C   MOL     1     -44.464   1.393  20.294  1.00  0.00     0.080 A 
HETATM   31  O   MOL     1     -45.034   1.717  21.049  1.00  0.00     0.000 OA
HETATM   32  C   MOL     1     -46.152  -0.583  15.506  1.00  0.00     0.025 C 
HETATM   33  C   MOL     1     -50.781  -2.137  16.499  1.00  0.00    -0.012 C 
HETATM   34  O   MOL     1     -49.057  -0.799  18.174  1.00  0.00     0.000 OA
ENDBRANCH   1   2
BRANCH   1  35
HETATM   35  C   MOL     1     -52.141  -3.666  15.661  1.00  0.00    -0.027 A 
HETATM   36  O   MOL     1     -51.785  -4.263  16.382  1.00  0.00     0.000 OA
HETATM   37  C   MOL     1     -52.389  -4.920  16.835  1.00  0.00     0.096 A 
HETATM   38  C   MOL     1     -53.373  -4.908  16.631  1.00  0.00     0.133 A 
HETATM   39  C   MOL     1     -53.696  -4.421  15.814  1.00  0.00     0.055 A 
HETATM   40  O   MOL     1     -54.443  -5.174  14.932  1.00  0.00     0.000 OA
HETATM   41  C   MOL     1     -53.103  -3.727  15.392  1.00  0.00     0.007 A 
HETATM   42  H   MOL     1     -55.051  -4.830  15.878  1.00  0.00     0.000 HD
HETATM   43  O   MOL     1     -55.014  -3.885  14.824  1.00  0.00     0.000 OA
HETATM   44  C   MOL     1     -54.387  -3.301  14.307  1.00  0.00     0.057 A 
HETATM   45  C   MOL     1     -55.964  -3.982  14.523  1.00  0.00     0.071 C 
HETATM   46  O   MOL     1     -53.437  -3.204  14.608  1.00  0.00     0.000 OA
HETATM   47  C   MOL     1     -54.755  -2.668  13.618  1.00  0.00     0.154 A 
HETATM   48  C   MOL     1     -55.694  -2.802  13.285  1.00  0.00     0.211 A 
HETATM   49  C   MOL     1     -56.332  -3.349  13.835  1.00  0.00     0.146 C 
BRANCH  37  50
HETATM   50  C   MOL     1     -51.829  -6.172  16.974  1.00  0.00     0.297 C 
HETATM   51  O   MOL     1     -52.216  -5.839  18.293  1.00  0.00    -0.188 OA
HETATM   52  O   MOL     1     -50.810  -5.306  17.434  1.00  0.00    -0.188 OA
ENDBRANCH  37  50
BRANCH  38  53
HETATM   53  O   MOL     1     -54.204  -4.836  17.730  1.00  0.00    -0.395 OA
HETATM   54  H   MOL     1     -54.560  -4.161  16.834  1.00  0.00     0.210 HD
ENDBRANCH  38  53
BRANCH  47  55
HETATM   55  O   MOL     1     -54.354  -1.354  13.746  1.00  0.00    -0.393 OA
HETATM   56  H   MOL     1     -55.429  -1.468  13.282  1.00  0.00     0.210 HD
ENDBRANCH  47  55
BRANCH  48  57
HETATM   57  O   MOL     1     -55.824  -2.935  11.919  1.00  0.00    -0.392 OA
HETATM   58  H   MOL     1     -54.843  -2.369  12.238  1.00  0.00     0.210 HD
ENDBRANCH  48  57
BRANCH  49  59
HETATM   59  O   MOL     1     -57.509  -2.718  14.180  1.00  0.00    -0.399 OA
HETATM   60  H   MOL     1     -57.097  -3.426  15.024  1.00  0.00     0.209 HD
ENDBRANCH  49  59
BRANCH  45  61
HETATM   61  C   MOL     1     -56.365  -5.296  14.396  1.00  0.00     0.292 C 
HETATM   62  O   MOL     1     -57.513  -4.566  14.008  1.00  0.00    -0.188 OA
HETATM   63  O   MOL     1     -56.957  -4.893  15.615  1.00  0.00    -0.188 OA
ENDBRANCH  45  61
ENDBRANCH   1  35
TORSDOF 8
ENDMDL
MODEL 9
REMARK VINA RESULT:      -8.9      4.942     13.113
REMARK  8 active torsions:
REMARK  status: ('A' for Active; 'I' for Inactive)
REMARK    1  A    between atoms: O_1  and  C_33 
REMARK    2  A    between atoms: O_1  and  C_49 
REMARK    3  A    between atoms: O_8  and  C_53 
REMARK    4  A    between atoms: O_12  and  C_56 
REMARK    5  A    between atoms: O_13  and  C_57 
REMARK    6  A    between atoms: O_14  and  C_59 
REMARK    7  A    between atoms: C_52  and  C_55 
REMARK    8  A    between atoms: C_58  and  C_60 
ROOT
HETATM    1  O   MOL     1     -49.843  -0.879  15.983  1.00  0.00     0.000 OA
ENDROOT
BRANCH   1   2
HETATM    2  C   MOL     1     -50.611  -1.506  15.845  1.00  0.00     0.007 C 
HETATM    3  C   MOL     1     -51.501  -1.168  15.321  1.00  0.00    -0.058 C 
HETATM    4  C   MOL     1     -52.109  -1.972  14.679  1.00  0.00    -0.007 C 
HETATM    5  C   MOL     1     -52.041  -0.430  14.916  1.00  0.00     0.027 C 
HETATM    6  C   MOL     1     -51.127  -0.242  15.275  1.00  0.00    -0.005 C 
HETATM    7  C   MOL     1     -52.237  -2.862  15.439  1.00  0.00    -0.037 A 
HETATM    8  C   MOL     1     -53.179  -1.535  14.667  1.00  0.00     0.006 C 
HETATM    9  C   MOL     1     -52.806  -3.629  14.750  1.00  0.00     0.013 A 
HETATM   10  C   MOL     1     -51.318  -3.243  15.874  1.00  0.00     0.014 C 
HETATM   11  C   MOL     1     -52.526  -3.631  16.547  1.00  0.00     0.081 C 
HETATM   12  C   MOL     1     -52.911  -4.489  15.457  1.00  0.00    -0.024 A 
HETATM   13  C   MOL     1     -53.861  -3.196  14.802  1.00  0.00    -0.033 A 
HETATM   14  C   MOL     1     -54.567  -3.857  14.530  1.00  0.00    -0.030 A 
HETATM   15  C   MOL     1     -53.951  -2.209  14.481  1.00  0.00     0.011 C 
HETATM   16  C   MOL     1     -54.894  -2.385  15.223  1.00  0.00     0.044 C 
HETATM   17  C   MOL     1     -54.495  -4.809  14.834  1.00  0.00    -0.018 A 
HETATM   18  C   MOL     1     -55.460  -5.385  15.100  1.00  0.00    -0.002 C 
HETATM   19  C   MOL     1     -53.657  -5.130  15.276  1.00  0.00    -0.036 C 
HETATM   20  C   MOL     1     -55.454  -3.498  14.115  1.00  0.00     0.041 A 
HETATM   21  C   MOL     1     -56.159  -5.151  14.237  1.00  0.00    -0.059 C 
HETATM   22  C   MOL     1     -55.140  -6.526  14.942  1.00  0.00     0.003 C 
HETATM   23  C   MOL     1     -56.235  -4.159  13.922  1.00  0.00     0.009 C 
HETATM   24  C   MOL     1     -56.954  -5.850  13.991  1.00  0.00     0.014 C 
HETATM   25  C   MOL     1     -57.374  -4.644  14.648  1.00  0.00     0.028 C 
HETATM   26  C   MOL     1     -56.854  -6.894  14.273  1.00  0.00     0.253 A 
HETATM   27  C   MOL     1     -55.921  -7.243  14.706  1.00  0.00     0.003 A 
HETATM   28  O   MOL     1     -57.222  -8.358  14.444  1.00  0.00    -0.382 OA
HETATM   29  C   MOL     1     -55.002  -8.170  14.261  1.00  0.00     0.044 C 
HETATM   30  C   MOL     1     -56.309  -8.161  14.801  1.00  0.00     0.080 A 
HETATM   31  O   MOL     1     -55.763  -8.895  15.207  1.00  0.00     0.000 OA
HETATM   32  C   MOL     1     -54.592  -3.211  13.312  1.00  0.00     0.025 C 
HETATM   33  C   MOL     1     -50.499  -2.561  16.078  1.00  0.00    -0.012 C 
HETATM   34  O   MOL     1     -52.072  -4.810  15.899  1.00  0.00     0.000 OA
ENDBRANCH   1   2
BRANCH   1  35
HETATM   35  C   MOL     1     -49.418  -0.797  16.885  1.00  0.00    -0.027 A 
HETATM   36  O   MOL     1     -49.978  -0.547  17.678  1.00  0.00     0.000 OA
HETATM   37  C   MOL     1     -49.544  -0.368  18.562  1.00  0.00     0.096 A 
HETATM   38  C   MOL     1     -48.559  -0.536  18.673  1.00  0.00     0.133 A 
HETATM   39  C   MOL     1     -47.987  -0.640  17.854  1.00  0.00     0.055 A 
HETATM   40  O   MOL     1     -46.911   0.219  17.771  1.00  0.00     0.000 OA
HETATM   41  C   MOL     1     -48.425  -0.868  16.978  1.00  0.00     0.007 A 
HETATM   42  H   MOL     1     -46.732  -0.679  18.509  1.00  0.00     0.000 HD
HETATM   43  O   MOL     1     -46.434  -0.961  17.154  1.00  0.00     0.000 OA
HETATM   44  C   MOL     1     -46.859  -1.043  16.251  1.00  0.00     0.057 A 
HETATM   45  C   MOL     1     -45.437  -0.983  17.237  1.00  0.00     0.071 C 
HETATM   46  O   MOL     1     -47.857  -1.020  16.168  1.00  0.00     0.000 OA
HETATM   47  C   MOL     1     -46.304  -1.342  15.468  1.00  0.00     0.154 A 
HETATM   48  C   MOL     1     -45.303  -1.315  15.542  1.00  0.00     0.211 A 
HETATM   49  C   MOL     1     -44.882  -1.282  16.454  1.00  0.00     0.146 C 
BRANCH  37  50
HETATM   50  C   MOL     1     -50.025   0.764  19.188  1.00  0.00     0.297 C 
HETATM   51  O   MOL     1     -50.230  -0.253  20.149  1.00  0.00    -0.188 OA
HETATM   52  O   MOL     1     -51.199   0.104  18.759  1.00  0.00    -0.188 OA
ENDBRANCH  37  50
BRANCH  38  53
HETATM   53  O   MOL     1     -48.212  -1.336  19.742  1.00  0.00    -0.395 OA
HETATM   54  H   MOL     1     -48.601  -0.273  20.065  1.00  0.00     0.210 HD
ENDBRANCH  38  53
BRANCH  47  55
HETATM   55  O   MOL     1     -46.817  -2.402  14.750  1.00  0.00    -0.393 OA
HETATM   56  H   MOL     1     -47.453  -1.418  14.642  1.00  0.00     0.210 HD
ENDBRANCH  47  55
BRANCH  48  57
HETATM   57  O   MOL     1     -44.656  -0.586  14.566  1.00  0.00    -0.392 OA
HETATM   58  H   MOL     1     -44.215  -1.668  14.706  1.00  0.00     0.210 HD
ENDBRANCH  48  57
BRANCH  49  59
HETATM   59  O   MOL     1     -43.971  -2.283  16.722  1.00  0.00    -0.399 OA
HETATM   60  H   MOL     1     -45.051  -2.688  16.492  1.00  0.00     0.209 HD
ENDBRANCH  49  59
BRANCH  45  61
HETATM   61  C   MOL     1     -44.925   0.078  17.956  1.00  0.00     0.292 C 
HETATM   62  O   MOL     1     -43.774  -0.671  17.614  1.00  0.00    -0.188 OA
HETATM   63  O   MOL     1     -44.905  -0.987  18.887  1.00  0.00    -0.188 OA
ENDBRANCH  45  61
ENDBRANCH   1  35
TORSDOF 8
ENDMDL
MODEL 10
REMARK VINA RESULT:      -8.6      4.266      7.168
REMARK  8 active torsions:
REMARK  status: ('A' for Active; 'I' for Inactive)
REMARK    1  A    between atoms: O_1  and  C_33 
REMARK    2  A    between atoms: O_1  and  C_49 
REMARK    3  A    between atoms: O_8  and  C_53 
REMARK    4  A    between atoms: O_12  and  C_56 
REMARK    5  A    between atoms: O_13  and  C_57 
REMARK    6  A    between atoms: O_14  and  C_59 
REMARK    7  A    between atoms: C_52  and  C_55 
REMARK    8  A    between atoms: C_58  and  C_60 
ROOT
HETATM    1  O   MOL     1     -51.259   0.208  16.953  1.00  0.00     0.000 OA
ENDROOT
BRANCH   1   2
HETATM    2  C   MOL     1     -50.310   0.171  17.271  1.00  0.00     0.007 C 
HETATM    3  C   MOL     1     -49.605  -0.507  16.798  1.00  0.00    -0.058 C 
HETATM    4  C   MOL     1     -48.459  -0.174  16.750  1.00  0.00    -0.007 C 
HETATM    5  C   MOL     1     -49.416  -1.263  16.171  1.00  0.00     0.027 C 
HETATM    6  C   MOL     1     -50.340  -0.887  16.236  1.00  0.00    -0.005 C 
HETATM    7  C   MOL     1     -48.238   0.143  17.862  1.00  0.00    -0.037 A 
HETATM    8  C   MOL     1     -47.900  -1.185  16.692  1.00  0.00     0.006 C 
HETATM    9  C   MOL     1     -47.117   0.490  17.749  1.00  0.00     0.013 A 
HETATM   10  C   MOL     1     -48.902   0.895  18.276  1.00  0.00     0.014 C 
HETATM   11  C   MOL     1     -48.116   0.172  19.236  1.00  0.00     0.081 C 
HETATM   12  C   MOL     1     -46.906   0.816  18.798  1.00  0.00    -0.024 A 
HETATM   13  C   MOL     1     -46.596  -0.526  17.746  1.00  0.00    -0.033 A 
HETATM   14  C   MOL     1     -45.616  -0.461  17.957  1.00  0.00    -0.030 A 
HETATM   15  C   MOL     1     -46.903  -1.179  16.994  1.00  0.00     0.011 C 
HETATM   16  C   MOL     1     -46.452  -1.892  17.864  1.00  0.00     0.044 C 
HETATM   17  C   MOL     1     -45.308   0.160  18.680  1.00  0.00    -0.018 A 
HETATM   18  C   MOL     1     -44.420  -0.157  19.348  1.00  0.00    -0.002 C 
HETATM   19  C   MOL     1     -45.947   0.815  19.082  1.00  0.00    -0.036 C 
HETATM   20  C   MOL     1     -44.972  -1.182  17.566  1.00  0.00     0.041 A 
HETATM   21  C   MOL     1     -43.650  -0.541  18.608  1.00  0.00    -0.059 C 
HETATM   22  C   MOL     1     -43.990   0.889  19.732  1.00  0.00     0.003 C 
HETATM   23  C   MOL     1     -43.972  -1.189  17.857  1.00  0.00     0.009 C 
HETATM   24  C   MOL     1     -42.598  -0.516  18.875  1.00  0.00     0.014 C 
HETATM   25  C   MOL     1     -43.209  -1.815  18.899  1.00  0.00     0.028 C 
HETATM   26  C   MOL     1     -42.252   0.194  19.620  1.00  0.00     0.253 A 
HETATM   27  C   MOL     1     -42.942   0.934  20.015  1.00  0.00     0.003 A 
HETATM   28  O   MOL     1     -41.296   0.914  20.556  1.00  0.00    -0.382 OA
HETATM   29  C   MOL     1     -42.933   2.311  19.952  1.00  0.00     0.044 C 
HETATM   30  C   MOL     1     -42.222   1.285  20.616  1.00  0.00     0.080 A 
HETATM   31  O   MOL     1     -42.418   2.041  21.241  1.00  0.00     0.000 OA
HETATM   32  C   MOL     1     -45.396  -0.582  16.602  1.00  0.00     0.025 C 
HETATM   33  C   MOL     1     -49.946   0.910  17.978  1.00  0.00    -0.012 C 
HETATM   34  O   MOL     1     -47.547   1.472  19.200  1.00  0.00     0.000 OA
ENDBRANCH   1   2
BRANCH   1  35
HETATM   35  C   MOL     1     -51.998   0.401  17.599  1.00  0.00    -0.027 A 
HETATM   36  O   MOL     1     -52.175  -0.233  18.355  1.00  0.00     0.000 OA
HETATM   37  C   MOL     1     -52.972  -0.099  18.946  1.00  0.00     0.096 A 
HETATM   38  C   MOL     1     -53.535   0.726  18.838  1.00  0.00     0.133 A 
HETATM   39  C   MOL     1     -53.445   1.271  17.998  1.00  0.00     0.055 A 
HETATM   40  O   MOL     1     -54.616   1.477  17.298  1.00  0.00     0.000 OA
HETATM   41  C   MOL     1     -52.619   1.167  17.434  1.00  0.00     0.007 A 
HETATM   42  H   MOL     1     -54.513   2.168  18.244  1.00  0.00     0.000 HD
HETATM   43  O   MOL     1     -53.889   2.671  17.077  1.00  0.00     0.000 OA
HETATM   44  C   MOL     1     -53.150   2.478  16.430  1.00  0.00     0.057 A 
HETATM   45  C   MOL     1     -54.539   3.408  16.884  1.00  0.00     0.071 C 
HETATM   46  O   MOL     1     -52.501   1.741  16.623  1.00  0.00     0.000 OA
HETATM   47  C   MOL     1     -52.945   3.141  15.703  1.00  0.00     0.154 A 
HETATM   48  C   MOL     1     -53.623   3.848  15.482  1.00  0.00     0.211 A 
HETATM   49  C   MOL     1     -54.334   4.070  16.157  1.00  0.00     0.146 C 
BRANCH  37  50
HETATM   50  C   MOL     1     -53.669  -1.263  19.194  1.00  0.00     0.297 C 
HETATM   51  O   MOL     1     -53.287  -0.830  20.485  1.00  0.00    -0.188 OA
HETATM   52  O   MOL     1     -52.317  -1.661  19.314  1.00  0.00    -0.188 OA
ENDBRANCH  37  50
BRANCH  38  53
HETATM   53  O   MOL     1     -53.753   1.449  19.992  1.00  0.00    -0.395 OA
HETATM   54  H   MOL     1     -54.130   1.999  19.022  1.00  0.00     0.210 HD
ENDBRANCH  38  53
BRANCH  47  55
HETATM   55  O   MOL     1     -51.626   3.538  15.619  1.00  0.00    -0.393 OA
HETATM   56  H   MOL     1     -52.108   3.303  14.571  1.00  0.00     0.210 HD
ENDBRANCH  47  55
BRANCH  48  57
HETATM   57  O   MOL     1     -54.026   3.892  14.163  1.00  0.00    -0.392 OA
HETATM   58  H   MOL     1     -54.612   4.643  14.852  1.00  0.00     0.210 HD
ENDBRANCH  48  57
BRANCH  49  59
HETATM   59  O   MOL     1     -54.405   5.397  16.528  1.00  0.00    -0.399 OA
HETATM   60  H   MOL     1     -53.986   5.241  15.440  1.00  0.00     0.209 HD
ENDBRANCH  49  59
BRANCH  45  61
HETATM   61  C   MOL     1     -55.858   3.010  16.969  1.00  0.00     0.292 C 
HETATM   62  O   MOL     1     -55.951   4.370  16.592  1.00  0.00    -0.188 OA
HETATM   63  O   MOL     1     -55.655   3.725  18.172  1.00  0.00    -0.188 OA
ENDBRANCH  45  61
ENDBRANCH   1  35
TORSDOF 8
ENDMDL
