MODEL 1
REMARK VINA RESULT:      -5.5      0.000      0.000
REMARK  20 active torsions:
REMARK  status: ('A' for Active; 'I' for Inactive)
REMARK    1  A    between atoms: C_3  and  C_7 
REMARK    2  A    between atoms: C_7  and  C_8 
REMARK    3  A    between atoms: C_8  and  N_9 
REMARK    4  A    between atoms: C_8  and  C_10 
REMARK    5  A    between atoms: C_10  and  O_11 
REMARK    6  A    between atoms: C_10  and  C_12 
REMARK    7  A    between atoms: C_12  and  C_13 
REMARK    8  A    between atoms: C_13  and  C_14 
REMARK    9  A    between atoms: C_13  and  N_21 
REMARK   10  A    between atoms: C_14  and  C_15 
REMARK   11  A    between atoms: N_21  and  P_22 
REMARK   12  A    between atoms: P_22  and  O_23 
REMARK   13  A    between atoms: P_22  and  O_24 
REMARK   14  A    between atoms: O_23  and  C_26 
REMARK   15  A    between atoms: O_24  and  C_27 
REMARK   16  A    between atoms: C_26  and  C_33 
REMARK   17  A    between atoms: C_35  and  C_40 
REMARK   18  A    between atoms: C_36  and  O_39 
REMARK   19  A    between atoms: C_37  and  O_38 
REMARK   20  A    between atoms: C_50  and  N_51 
ROOT
HETATM    1  C   MOL     1     -42.961  -1.196  19.489  1.00 -0.25     0.001 A 
HETATM    2  C   MOL     1     -43.737  -1.430  18.376  1.00 -0.30     0.007 A 
HETATM    3  C   MOL     1     -44.285  -0.377  17.677  1.00 -0.25    -0.056 A 
HETATM    4  C   MOL     1     -44.050   0.914  18.101  1.00 -0.33     0.007 A 
HETATM    5  C   MOL     1     -43.275   1.149  19.214  1.00 -0.34     0.001 A 
HETATM    6  C   MOL     1     -42.731   0.093  19.908  1.00 -0.27     0.000 A 
ENDROOT
BRANCH   3   7
HETATM    7  C   MOL     1     -45.140  -0.636  16.445  1.00 -0.43     0.074 C 
BRANCH   7   8
HETATM    8  C   MOL     1     -45.531  -2.114  16.219  1.00 -0.43     0.216 C 
BRANCH   8   9
HETATM    9  N   MOL     1     -45.642  -2.372  14.740  1.00  0.05    -0.072 N 
HETATM   10  H   MOL     1     -45.727  -3.259  14.557  1.00 -0.64     0.274 HD
HETATM   11  H   MOL     1     -46.367  -1.957  14.380  1.00 -0.76     0.274 HD
HETATM   12  H   MOL     1     -44.920  -2.068  14.281  1.00 -0.15     0.274 HD
ENDBRANCH   8   9
BRANCH   8  13
HETATM   13  C   MOL     1     -46.860  -2.426  16.945  1.00 -0.29     0.150 C 
BRANCH  13  14
HETATM   14  O   MOL     1     -47.494  -3.567  16.341  1.00  0.06    -0.393 OA
HETATM   15  H   MOL     1     -47.742  -3.383  15.384  1.00 -0.27     0.210 HD
ENDBRANCH  13  14
BRANCH  13  16
HETATM   16  C   MOL     1     -47.825  -1.222  16.890  1.00 -0.14     0.054 C 
BRANCH  16  17
HETATM   17  C   MOL     1     -48.399  -0.886  18.285  1.00 -0.12     0.073 C 
BRANCH  17  18
HETATM   18  C   MOL     1     -47.995   0.555  18.673  1.00 -0.13     0.058 C 
BRANCH  18  19
HETATM   19  C   MOL     1     -47.137   0.682  19.922  1.00 -0.16    -0.057 A 
HETATM   20  C   MOL     1     -46.678  -0.446  20.568  1.00 -0.21     0.007 A 
HETATM   21  C   MOL     1     -45.903  -0.333  21.701  1.00 -0.25     0.001 A 
HETATM   22  C   MOL     1     -45.585   0.911  22.194  1.00 -0.37     0.000 A 
HETATM   23  C   MOL     1     -46.040   2.041  21.553  1.00 -0.40     0.001 A 
HETATM   24  C   MOL     1     -46.814   1.925  20.420  1.00 -0.21     0.007 A 
ENDBRANCH  18  19
ENDBRANCH  17  18
BRANCH  17  25
HETATM   25  N   MOL     1     -49.864  -0.993  18.256  1.00  0.15    -0.221 NA
HETATM   26  H   MOL     1     -50.192  -1.104  17.288  1.00  0.32     0.134 HD
BRANCH  25  27
HETATM   27  P   MOL     1     -50.418  -2.085  19.136  1.00  0.09     0.413 P 
HETATM   28  O   MOL     1     -49.329  -3.005  19.623  1.00  0.07    -0.239 OA
BRANCH  27  29
HETATM   29  O   MOL     1     -51.555  -2.929  18.374  1.00  0.12    -0.299 OA
BRANCH  29  30
HETATM   30  C   MOL     1     -52.894  -2.912  18.891  1.00 -0.20     0.214 C 
BRANCH  30  31
HETATM   31  C   MOL     1     -53.864  -2.421  17.804  1.00 -0.04     0.180 C 
HETATM   32  O   MOL     1     -53.295  -2.561  16.491  1.00  0.26    -0.347 OA
HETATM   33  C   MOL     1     -53.745  -1.493  15.635  1.00 -0.04     0.222 C 
HETATM   34  C   MOL     1     -54.640  -0.588  16.514  1.00 -0.10     0.205 C 
HETATM   35  C   MOL     1     -54.532  -2.078  14.543  1.00 -0.21     0.107 C 
HETATM   36  C   MOL     1     -54.228  -0.936  17.950  1.00 -0.06     0.182 C 
HETATM   37  N   MOL     1     -55.143  -2.532  13.698  1.00  0.07    -0.193 NA
BRANCH  33  38
HETATM   38  C   MOL     1     -52.472  -0.849  15.095  1.00 -0.19     0.088 A 
HETATM   39  N   MOL     1     -51.413  -1.605  14.719  1.00 -0.03    -0.229 N 
HETATM   40  C   MOL     1     -50.472  -0.718  14.299  1.00 -0.22     0.104 A 
HETATM   41  N   MOL     1     -51.172  -2.949  14.702  1.00  0.23    -0.160 NA
HETATM   42  C   MOL     1     -50.918   0.560  14.407  1.00 -0.37     0.038 A 
HETATM   43  C   MOL     1     -49.235  -1.239  13.839  1.00 -0.44     0.151 A 
HETATM   44  C   MOL     1     -52.213   0.466  14.925  1.00 -0.17     0.034 A 
HETATM   45  N   MOL     1     -48.983  -2.555  13.816  1.00 -0.19    -0.221 NA
HETATM   46  C   MOL     1     -50.003  -3.355  14.265  1.00 -0.33     0.258 A 
BRANCH  43  47
HETATM   47  N   MOL     1     -48.238  -0.402  13.395  1.00 -0.25    -0.382 N 
HETATM   48  H   MOL     1     -47.395  -0.610  13.543  1.00 -0.27     0.157 HD
HETATM   49  H   MOL     1     -48.437   0.339  12.964  1.00 -0.19     0.157 HD
ENDBRANCH  43  47
ENDBRANCH  33  38
BRANCH  34  50
HETATM   50  O   MOL     1     -54.483   0.813  16.238  1.00  0.41    -0.388 OA
HETATM   51  H   MOL     1     -54.250   0.972  15.273  1.00 -0.42     0.210 HD
ENDBRANCH  34  50
BRANCH  36  52
HETATM   52  O   MOL     1     -53.093  -0.143  18.332  1.00  0.07    -0.390 OA
HETATM   53  H   MOL     1     -52.767   0.421  17.566  1.00 -0.09     0.210 HD
ENDBRANCH  36  52
ENDBRANCH  30  31
ENDBRANCH  29  30
ENDBRANCH  27  29
BRANCH  27  54
HETATM   54  O   MOL     1     -51.216  -1.445  20.383  1.00  0.13    -0.260 OA
BRANCH  54  55
HETATM   55  C   MOL     1     -50.645  -0.527  21.220  1.00 -0.29     0.080 A 
HETATM   56  C   MOL     1     -50.809   0.834  21.032  1.00 -0.28     0.037 A 
HETATM   57  C   MOL     1     -50.225   1.731  21.894  1.00 -0.40     0.003 A 
HETATM   58  C   MOL     1     -49.472   1.278  22.954  1.00 -0.35     0.000 A 
HETATM   59  C   MOL     1     -49.303  -0.073  23.148  1.00 -0.47     0.003 A 
HETATM   60  C   MOL     1     -49.885  -0.971  22.285  1.00 -0.37     0.037 A 
ENDBRANCH  54  55
ENDBRANCH  27  54
ENDBRANCH  25  27
ENDBRANCH  17  25
ENDBRANCH  16  17
ENDBRANCH  13  16
ENDBRANCH   8  13
ENDBRANCH   7   8
ENDBRANCH   3   7
TORSDOF 20
ENDMDL
MODEL 2
REMARK VINA RESULT:      -5.5      3.789      5.116
REMARK  20 active torsions:
REMARK  status: ('A' for Active; 'I' for Inactive)
REMARK    1  A    between atoms: C_3  and  C_7 
REMARK    2  A    between atoms: C_7  and  C_8 
REMARK    3  A    between atoms: C_8  and  N_9 
REMARK    4  A    between atoms: C_8  and  C_10 
REMARK    5  A    between atoms: C_10  and  O_11 
REMARK    6  A    between atoms: C_10  and  C_12 
REMARK    7  A    between atoms: C_12  and  C_13 
REMARK    8  A    between atoms: C_13  and  C_14 
REMARK    9  A    between atoms: C_13  and  N_21 
REMARK   10  A    between atoms: C_14  and  C_15 
REMARK   11  A    between atoms: N_21  and  P_22 
REMARK   12  A    between atoms: P_22  and  O_23 
REMARK   13  A    between atoms: P_22  and  O_24 
REMARK   14  A    between atoms: O_23  and  C_26 
REMARK   15  A    between atoms: O_24  and  C_27 
REMARK   16  A    between atoms: C_26  and  C_33 
REMARK   17  A    between atoms: C_35  and  C_40 
REMARK   18  A    between atoms: C_36  and  O_39 
REMARK   19  A    between atoms: C_37  and  O_38 
REMARK   20  A    between atoms: C_50  and  N_51 
ROOT
HETATM    1  C   MOL     1     -43.030  -1.355  19.602  1.00 -0.25     0.001 A 
HETATM    2  C   MOL     1     -43.620  -1.451  18.362  1.00 -0.30     0.007 A 
HETATM    3  C   MOL     1     -44.011  -0.316  17.687  1.00 -0.25    -0.056 A 
HETATM    4  C   MOL     1     -43.805   0.920  18.263  1.00 -0.33     0.007 A 
HETATM    5  C   MOL     1     -43.215   1.018  19.503  1.00 -0.34     0.001 A 
HETATM    6  C   MOL     1     -42.828  -0.120  20.172  1.00 -0.27     0.000 A 
ENDROOT
BRANCH   3   7
HETATM    7  C   MOL     1     -44.661  -0.424  16.315  1.00 -0.43     0.074 C 
BRANCH   7   8
HETATM    8  C   MOL     1     -44.845  -1.866  15.790  1.00 -0.43     0.216 C 
BRANCH   8   9
HETATM    9  N   MOL     1     -44.166  -1.992  14.452  1.00  0.05    -0.072 N 
HETATM   10  H   MOL     1     -44.751  -2.231  13.798  1.00 -0.64     0.274 HD
HETATM   11  H   MOL     1     -43.785  -1.207  14.194  1.00 -0.76     0.274 HD
HETATM   12  H   MOL     1     -43.499  -2.609  14.459  1.00 -0.15     0.274 HD
ENDBRANCH   8   9
BRANCH   8  13
HETATM   13  C   MOL     1     -46.350  -2.204  15.691  1.00 -0.29     0.150 C 
BRANCH  13  14
HETATM   14  O   MOL     1     -46.630  -2.836  14.429  1.00  0.06    -0.393 OA
HETATM   15  H   MOL     1     -45.787  -2.988  13.902  1.00 -0.27     0.210 HD
ENDBRANCH  13  14
BRANCH  13  16
HETATM   16  C   MOL     1     -47.220  -0.936  15.827  1.00 -0.14     0.054 C 
BRANCH  16  17
HETATM   17  C   MOL     1     -47.962  -0.895  17.182  1.00 -0.12     0.073 C 
BRANCH  17  18
HETATM   18  C   MOL     1     -47.913   0.540  17.752  1.00 -0.13     0.058 C 
BRANCH  18  19
HETATM   19  C   MOL     1     -47.298   0.675  19.137  1.00 -0.16    -0.057 A 
HETATM   20  C   MOL     1     -46.918  -0.447  19.841  1.00 -0.21     0.007 A 
HETATM   21  C   MOL     1     -46.365  -0.326  21.097  1.00 -0.25     0.001 A 
HETATM   22  C   MOL     1     -46.191   0.919  21.654  1.00 -0.37     0.000 A 
HETATM   23  C   MOL     1     -46.569   2.044  20.956  1.00 -0.40     0.001 A 
HETATM   24  C   MOL     1     -47.121   1.921  19.700  1.00 -0.21     0.007 A 
ENDBRANCH  18  19
ENDBRANCH  17  18
BRANCH  17  25
HETATM   25  N   MOL     1     -49.362  -1.298  16.991  1.00  0.15    -0.221 NA
HETATM   26  H   MOL     1     -49.505  -1.639  16.032  1.00  0.32     0.134 HD
BRANCH  25  27
HETATM   27  P   MOL     1     -49.853  -2.310  17.995  1.00  0.09     0.413 P 
HETATM   28  O   MOL     1     -48.727  -2.827  18.851  1.00  0.07    -0.239 OA
BRANCH  27  29
HETATM   29  O   MOL     1     -50.605  -3.534  17.272  1.00  0.12    -0.299 OA
BRANCH  29  30
HETATM   30  C   MOL     1     -52.034  -3.625  17.370  1.00 -0.20     0.214 C 
BRANCH  30  31
HETATM   31  C   MOL     1     -52.420  -4.865  18.193  1.00 -0.04     0.180 C 
HETATM   32  O   MOL     1     -51.404  -5.193  19.155  1.00  0.26    -0.347 OA
HETATM   33  C   MOL     1     -51.330  -6.620  19.337  1.00 -0.04     0.222 C 
HETATM   34  C   MOL     1     -52.369  -7.230  18.366  1.00 -0.10     0.205 C 
HETATM   35  C   MOL     1     -51.695  -6.927  20.726  1.00 -0.21     0.107 C 
HETATM   36  C   MOL     1     -52.608  -6.122  17.332  1.00 -0.06     0.182 C 
HETATM   37  N   MOL     1     -51.977  -7.165  21.802  1.00  0.07    -0.193 NA
BRANCH  33  38
HETATM   38  C   MOL     1     -49.874  -6.984  19.071  1.00 -0.19     0.088 A 
HETATM   39  N   MOL     1     -49.395  -8.214  19.374  1.00 -0.03    -0.229 N 
HETATM   40  C   MOL     1     -48.085  -8.187  19.013  1.00 -0.22     0.104 A 
HETATM   41  N   MOL     1     -49.953  -9.335  19.921  1.00  0.23    -0.160 NA
HETATM   42  C   MOL     1     -47.742  -6.978  18.499  1.00 -0.37     0.038 A 
HETATM   43  C   MOL     1     -47.320  -9.364  19.220  1.00 -0.44     0.151 A 
HETATM   44  C   MOL     1     -48.905  -6.205  18.542  1.00 -0.17     0.034 A 
HETATM   45  N   MOL     1     -47.852 -10.471  19.755  1.00 -0.19    -0.221 NA
HETATM   46  C   MOL     1     -49.181 -10.383  20.084  1.00 -0.33     0.258 A 
BRANCH  43  47
HETATM   47  N   MOL     1     -45.990  -9.412  18.875  1.00 -0.25    -0.382 N 
HETATM   48  H   MOL     1     -45.760  -9.520  18.032  1.00 -0.27     0.157 HD
HETATM   49  H   MOL     1     -45.366  -9.334  19.492  1.00 -0.19     0.157 HD
ENDBRANCH  43  47
ENDBRANCH  33  38
BRANCH  34  50
HETATM   50  O   MOL     1     -51.927  -8.450  17.749  1.00  0.41    -0.388 OA
HETATM   51  H   MOL     1     -52.122  -8.453  16.763  1.00 -0.42     0.210 HD
ENDBRANCH  34  50
BRANCH  36  52
HETATM   52  O   MOL     1     -51.620  -6.210  16.293  1.00  0.07    -0.390 OA
HETATM   53  H   MOL     1     -51.859  -5.624  15.511  1.00 -0.09     0.210 HD
ENDBRANCH  36  52
ENDBRANCH  30  31
ENDBRANCH  29  30
ENDBRANCH  27  29
BRANCH  27  54
HETATM   54  O   MOL     1     -51.011  -1.665  18.915  1.00  0.13    -0.260 OA
BRANCH  54  55
HETATM   55  C   MOL     1     -50.752  -0.689  19.836  1.00 -0.29     0.080 A 
HETATM   56  C   MOL     1     -50.990   0.647  19.570  1.00 -0.28     0.037 A 
HETATM   57  C   MOL     1     -50.722   1.604  20.520  1.00 -0.40     0.003 A 
HETATM   58  C   MOL     1     -50.215   1.236  21.745  1.00 -0.35     0.000 A 
HETATM   59  C   MOL     1     -49.974  -0.091  22.018  1.00 -0.47     0.003 A 
HETATM   60  C   MOL     1     -50.240  -1.048  21.068  1.00 -0.37     0.037 A 
ENDBRANCH  54  55
ENDBRANCH  27  54
ENDBRANCH  25  27
ENDBRANCH  17  25
ENDBRANCH  16  17
ENDBRANCH  13  16
ENDBRANCH   8  13
ENDBRANCH   7   8
ENDBRANCH   3   7
TORSDOF 20
ENDMDL
MODEL 3
REMARK VINA RESULT:      -5.5      2.012      3.138
REMARK  20 active torsions:
REMARK  status: ('A' for Active; 'I' for Inactive)
REMARK    1  A    between atoms: C_3  and  C_7 
REMARK    2  A    between atoms: C_7  and  C_8 
REMARK    3  A    between atoms: C_8  and  N_9 
REMARK    4  A    between atoms: C_8  and  C_10 
REMARK    5  A    between atoms: C_10  and  O_11 
REMARK    6  A    between atoms: C_10  and  C_12 
REMARK    7  A    between atoms: C_12  and  C_13 
REMARK    8  A    between atoms: C_13  and  C_14 
REMARK    9  A    between atoms: C_13  and  N_21 
REMARK   10  A    between atoms: C_14  and  C_15 
REMARK   11  A    between atoms: N_21  and  P_22 
REMARK   12  A    between atoms: P_22  and  O_23 
REMARK   13  A    between atoms: P_22  and  O_24 
REMARK   14  A    between atoms: O_23  and  C_26 
REMARK   15  A    between atoms: O_24  and  C_27 
REMARK   16  A    between atoms: C_26  and  C_33 
REMARK   17  A    between atoms: C_35  and  C_40 
REMARK   18  A    between atoms: C_36  and  O_39 
REMARK   19  A    between atoms: C_37  and  O_38 
REMARK   20  A    between atoms: C_50  and  N_51 
ROOT
HETATM    1  C   MOL     1     -43.087   0.814  19.059  1.00 -0.25     0.001 A 
HETATM    2  C   MOL     1     -43.929   0.701  17.976  1.00 -0.30     0.007 A 
HETATM    3  C   MOL     1     -44.312  -0.541  17.519  1.00 -0.25    -0.056 A 
HETATM    4  C   MOL     1     -43.845  -1.671  18.156  1.00 -0.33     0.007 A 
HETATM    5  C   MOL     1     -43.002  -1.559  19.238  1.00 -0.34     0.001 A 
HETATM    6  C   MOL     1     -42.623  -0.316  19.690  1.00 -0.27     0.000 A 
ENDROOT
BRANCH   3   7
HETATM    7  C   MOL     1     -45.246  -0.665  16.323  1.00 -0.43     0.074 C 
BRANCH   7   8
HETATM    8  C   MOL     1     -45.914  -2.048  16.155  1.00 -0.43     0.216 C 
BRANCH   8   9
HETATM    9  N   MOL     1     -45.682  -2.538  14.751  1.00  0.05    -0.072 N 
HETATM   10  H   MOL     1     -45.324  -1.891  14.221  1.00 -0.64     0.274 HD
HETATM   11  H   MOL     1     -45.107  -3.244  14.732  1.00 -0.76     0.274 HD
HETATM   12  H   MOL     1     -46.447  -2.822  14.352  1.00 -0.15     0.274 HD
ENDBRANCH   8   9
BRANCH   8  13
HETATM   13  C   MOL     1     -47.424  -1.947  16.473  1.00 -0.29     0.150 C 
BRANCH  13  14
HETATM   14  O   MOL     1     -48.195  -2.393  15.343  1.00  0.06    -0.393 OA
HETATM   15  H   MOL     1     -47.600  -2.743  14.611  1.00 -0.27     0.210 HD
ENDBRANCH  13  14
BRANCH  13  16
HETATM   16  C   MOL     1     -47.828  -0.499  16.822  1.00 -0.14     0.054 C 
BRANCH  16  17
HETATM   17  C   MOL     1     -48.173  -0.348  18.321  1.00 -0.12     0.073 C 
BRANCH  17  18
HETATM   18  C   MOL     1     -47.534   0.948  18.868  1.00 -0.13     0.058 C 
BRANCH  18  19
HETATM   19  C   MOL     1     -46.674   0.782  20.112  1.00 -0.16    -0.057 A 
HETATM   20  C   MOL     1     -46.411  -0.475  20.612  1.00 -0.21     0.007 A 
HETATM   21  C   MOL     1     -45.636  -0.627  21.739  1.00 -0.25     0.001 A 
HETATM   22  C   MOL     1     -45.121   0.479  22.374  1.00 -0.37     0.000 A 
HETATM   23  C   MOL     1     -45.380   1.738  21.879  1.00 -0.40     0.001 A 
HETATM   24  C   MOL     1     -46.155   1.887  20.751  1.00 -0.21     0.007 A 
ENDBRANCH  18  19
ENDBRANCH  17  18
BRANCH  17  25
HETATM   25  N   MOL     1     -49.631  -0.283  18.488  1.00  0.15    -0.221 NA
HETATM   26  H   MOL     1     -50.091  -0.223  17.571  1.00  0.32     0.134 HD
BRANCH  25  27
HETATM   27  P   MOL     1     -50.208  -1.416  19.300  1.00  0.09     0.413 P 
HETATM   28  O   MOL     1     -49.167  -2.461  19.603  1.00  0.07    -0.239 OA
BRANCH  27  29
HETATM   29  O   MOL     1     -51.466  -2.087  18.556  1.00  0.12    -0.299 OA
BRANCH  29  30
HETATM   30  C   MOL     1     -51.236  -3.181  17.655  1.00 -0.20     0.214 C 
BRANCH  30  31
HETATM   31  C   MOL     1     -51.286  -2.678  16.204  1.00 -0.04     0.180 C 
HETATM   32  O   MOL     1     -50.923  -1.290  16.116  1.00  0.26    -0.347 OA
HETATM   33  C   MOL     1     -51.664  -0.645  15.063  1.00 -0.04     0.222 C 
HETATM   34  C   MOL     1     -52.602  -1.726  14.475  1.00 -0.10     0.205 C 
HETATM   35  C   MOL     1     -50.713  -0.189  14.042  1.00 -0.21     0.107 C 
HETATM   36  C   MOL     1     -52.684  -2.789  15.578  1.00 -0.06     0.182 C 
HETATM   37  N   MOL     1     -49.976   0.164  13.251  1.00  0.07    -0.193 NA
BRANCH  33  38
HETATM   38  C   MOL     1     -52.351   0.544  15.727  1.00 -0.19     0.088 A 
HETATM   39  N   MOL     1     -52.942   1.511  14.985  1.00 -0.03    -0.229 N 
HETATM   40  C   MOL     1     -53.441   2.398  15.887  1.00 -0.22     0.104 A 
HETATM   41  N   MOL     1     -53.093   1.711  13.643  1.00  0.23    -0.160 NA
HETATM   42  C   MOL     1     -53.173   2.008  17.160  1.00 -0.37     0.038 A 
HETATM   43  C   MOL     1     -54.126   3.534  15.384  1.00 -0.44     0.151 A 
HETATM   44  C   MOL     1     -52.466   0.808  17.047  1.00 -0.17     0.034 A 
HETATM   45  N   MOL     1     -54.283   3.744  14.069  1.00 -0.19    -0.221 NA
HETATM   46  C   MOL     1     -53.736   2.786  13.253  1.00 -0.33     0.258 A 
BRANCH  43  47
HETATM   47  N   MOL     1     -54.661   4.471  16.236  1.00 -0.25    -0.382 N 
HETATM   48  H   MOL     1     -55.525   4.466  16.406  1.00 -0.27     0.157 HD
HETATM   49  H   MOL     1     -54.144   5.077  16.614  1.00 -0.19     0.157 HD
ENDBRANCH  43  47
ENDBRANCH  33  38
BRANCH  34  50
HETATM   50  O   MOL     1     -53.900  -1.225  14.118  1.00  0.41    -0.388 OA
HETATM   51  H   MOL     1     -53.863  -0.682  13.272  1.00 -0.42     0.210 HD
ENDBRANCH  34  50
BRANCH  36  52
HETATM   52  O   MOL     1     -53.717  -2.437  16.512  1.00  0.07    -0.390 OA
HETATM   53  H   MOL     1     -53.739  -1.444  16.675  1.00 -0.09     0.210 HD
ENDBRANCH  36  52
ENDBRANCH  30  31
ENDBRANCH  29  30
ENDBRANCH  27  29
BRANCH  27  54
HETATM   54  O   MOL     1     -50.854  -0.850  20.665  1.00  0.13    -0.260 OA
BRANCH  54  55
HETATM   55  C   MOL     1     -50.210   0.062  21.454  1.00 -0.29     0.080 A 
HETATM   56  C   MOL     1     -49.418  -0.326  22.519  1.00 -0.28     0.037 A 
HETATM   57  C   MOL     1     -48.779   0.615  23.291  1.00 -0.40     0.003 A 
HETATM   58  C   MOL     1     -48.924   1.954  23.005  1.00 -0.35     0.000 A 
HETATM   59  C   MOL     1     -49.710   2.349  21.947  1.00 -0.47     0.003 A 
HETATM   60  C   MOL     1     -50.351   1.408  21.177  1.00 -0.37     0.037 A 
ENDBRANCH  54  55
ENDBRANCH  27  54
ENDBRANCH  25  27
ENDBRANCH  17  25
ENDBRANCH  16  17
ENDBRANCH  13  16
ENDBRANCH   8  13
ENDBRANCH   7   8
ENDBRANCH   3   7
TORSDOF 20
ENDMDL
MODEL 4
REMARK VINA RESULT:      -5.4      1.665      2.356
REMARK  20 active torsions:
REMARK  status: ('A' for Active; 'I' for Inactive)
REMARK    1  A    between atoms: C_3  and  C_7 
REMARK    2  A    between atoms: C_7  and  C_8 
REMARK    3  A    between atoms: C_8  and  N_9 
REMARK    4  A    between atoms: C_8  and  C_10 
REMARK    5  A    between atoms: C_10  and  O_11 
REMARK    6  A    between atoms: C_10  and  C_12 
REMARK    7  A    between atoms: C_12  and  C_13 
REMARK    8  A    between atoms: C_13  and  C_14 
REMARK    9  A    between atoms: C_13  and  N_21 
REMARK   10  A    between atoms: C_14  and  C_15 
REMARK   11  A    between atoms: N_21  and  P_22 
REMARK   12  A    between atoms: P_22  and  O_23 
REMARK   13  A    between atoms: P_22  and  O_24 
REMARK   14  A    between atoms: O_23  and  C_26 
REMARK   15  A    between atoms: O_24  and  C_27 
REMARK   16  A    between atoms: C_26  and  C_33 
REMARK   17  A    between atoms: C_35  and  C_40 
REMARK   18  A    between atoms: C_36  and  O_39 
REMARK   19  A    between atoms: C_37  and  O_38 
REMARK   20  A    between atoms: C_50  and  N_51 
ROOT
HETATM    1  C   MOL     1     -43.078   1.112  19.462  1.00 -0.25     0.001 A 
HETATM    2  C   MOL     1     -43.769   1.007  18.277  1.00 -0.30     0.007 A 
HETATM    3  C   MOL     1     -44.081  -0.232  17.759  1.00 -0.25    -0.056 A 
HETATM    4  C   MOL     1     -43.694  -1.367  18.440  1.00 -0.33     0.007 A 
HETATM    5  C   MOL     1     -43.001  -1.264  19.625  1.00 -0.34     0.001 A 
HETATM    6  C   MOL     1     -42.693  -0.024  20.136  1.00 -0.27     0.000 A 
ENDROOT
BRANCH   3   7
HETATM    7  C   MOL     1     -44.848  -0.346  16.450  1.00 -0.43     0.074 C 
BRANCH   7   8
HETATM    8  C   MOL     1     -45.230  -1.785  16.039  1.00 -0.43     0.216 C 
BRANCH   8   9
HETATM    9  N   MOL     1     -44.634  -2.086  14.690  1.00  0.05    -0.072 N 
HETATM   10  H   MOL     1     -44.670  -1.366  14.136  1.00 -0.64     0.274 HD
HETATM   11  H   MOL     1     -43.758  -2.325  14.756  1.00 -0.76     0.274 HD
HETATM   12  H   MOL     1     -45.054  -2.773  14.270  1.00 -0.15     0.274 HD
ENDBRANCH   8   9
BRANCH   8  13
HETATM   13  C   MOL     1     -46.769  -1.938  16.020  1.00 -0.29     0.150 C 
BRANCH  13  14
HETATM   14  O   MOL     1     -47.195  -2.461  14.749  1.00  0.06    -0.393 OA
HETATM   15  H   MOL     1     -47.842  -1.838  14.297  1.00 -0.27     0.210 HD
ENDBRANCH  13  14
BRANCH  13  16
HETATM   16  C   MOL     1     -47.470  -0.586  16.273  1.00 -0.14     0.054 C 
BRANCH  16  17
HETATM   17  C   MOL     1     -48.068  -0.511  17.696  1.00 -0.12     0.073 C 
BRANCH  17  18
HETATM   18  C   MOL     1     -47.680   0.836  18.346  1.00 -0.13     0.058 C 
BRANCH  18  19
HETATM   19  C   MOL     1     -47.004   0.738  19.705  1.00 -0.16    -0.057 A 
HETATM   20  C   MOL     1     -46.726  -0.494  20.256  1.00 -0.21     0.007 A 
HETATM   21  C   MOL     1     -46.117  -0.585  21.488  1.00 -0.25     0.001 A 
HETATM   22  C   MOL     1     -45.786   0.559  22.176  1.00 -0.37     0.000 A 
HETATM   23  C   MOL     1     -46.062   1.793  21.631  1.00 -0.40     0.001 A 
HETATM   24  C   MOL     1     -46.669   1.881  20.399  1.00 -0.21     0.007 A 
ENDBRANCH  18  19
ENDBRANCH  17  18
BRANCH  17  25
HETATM   25  N   MOL     1     -49.532  -0.615  17.623  1.00  0.15    -0.221 NA
HETATM   26  H   MOL     1     -49.843  -0.564  16.644  1.00  0.32     0.134 HD
BRANCH  25  27
HETATM   27  P   MOL     1     -50.095  -1.841  18.297  1.00  0.09     0.413 P 
HETATM   28  O   MOL     1     -49.002  -2.776  18.742  1.00  0.07    -0.239 OA
BRANCH  27  29
HETATM   29  O   MOL     1     -51.128  -2.614  17.337  1.00  0.12    -0.299 OA
BRANCH  29  30
HETATM   30  C   MOL     1     -52.316  -3.179  17.910  1.00 -0.20     0.214 C 
BRANCH  30  31
HETATM   31  C   MOL     1     -53.545  -2.732  17.101  1.00 -0.04     0.180 C 
HETATM   32  O   MOL     1     -53.176  -2.303  15.780  1.00  0.26    -0.347 OA
HETATM   33  C   MOL     1     -54.038  -1.236  15.342  1.00 -0.04     0.222 C 
HETATM   34  C   MOL     1     -55.001  -0.953  16.519  1.00 -0.10     0.205 C 
HETATM   35  C   MOL     1     -54.792  -1.703  14.171  1.00 -0.21     0.107 C 
HETATM   36  C   MOL     1     -54.285  -1.547  17.739  1.00 -0.06     0.182 C 
HETATM   37  N   MOL     1     -55.377  -2.065  13.266  1.00  0.07    -0.193 NA
BRANCH  33  38
HETATM   38  C   MOL     1     -53.102  -0.096  14.957  1.00 -0.19     0.088 A 
HETATM   39  N   MOL     1     -53.573   1.018  14.347  1.00 -0.03    -0.229 N 
HETATM   40  C   MOL     1     -52.482   1.806  14.152  1.00 -0.22     0.104 A 
HETATM   41  N   MOL     1     -54.814   1.420  13.944  1.00  0.23    -0.160 NA
HETATM   42  C   MOL     1     -51.356   1.212  14.622  1.00 -0.37     0.038 A 
HETATM   43  C   MOL     1     -52.682   3.062  13.521  1.00 -0.44     0.151 A 
HETATM   44  C   MOL     1     -51.765  -0.020  15.140  1.00 -0.17     0.034 A 
HETATM   45  N   MOL     1     -53.893   3.470  13.120  1.00 -0.19    -0.221 NA
HETATM   46  C   MOL     1     -54.919   2.592  13.365  1.00 -0.33     0.258 A 
BRANCH  43  47
HETATM   47  N   MOL     1     -51.626   3.914  13.295  1.00 -0.25    -0.382 N 
HETATM   48  H   MOL     1     -51.540   4.642  13.783  1.00 -0.27     0.157 HD
HETATM   49  H   MOL     1     -51.036   3.736  12.667  1.00 -0.19     0.157 HD
ENDBRANCH  43  47
ENDBRANCH  33  38
BRANCH  34  50
HETATM   50  O   MOL     1     -55.291   0.443  16.697  1.00  0.41    -0.388 OA
HETATM   51  H   MOL     1     -55.745   0.612  17.579  1.00 -0.42     0.210 HD
ENDBRANCH  34  50
BRANCH  36  52
HETATM   52  O   MOL     1     -53.374  -0.579  18.283  1.00  0.07    -0.390 OA
HETATM   53  H   MOL     1     -53.844   0.052  18.911  1.00 -0.09     0.210 HD
ENDBRANCH  36  52
ENDBRANCH  30  31
ENDBRANCH  29  30
ENDBRANCH  27  29
BRANCH  27  54
HETATM   54  O   MOL     1     -51.016  -1.412  19.550  1.00  0.13    -0.260 OA
BRANCH  54  55
HETATM   55  C   MOL     1     -50.576  -0.555  20.520  1.00 -0.29     0.080 A 
HETATM   56  C   MOL     1     -50.707   0.816  20.395  1.00 -0.28     0.037 A 
HETATM   57  C   MOL     1     -50.257   1.652  21.389  1.00 -0.40     0.003 A 
HETATM   58  C   MOL     1     -49.673   1.126  22.520  1.00 -0.35     0.000 A 
HETATM   59  C   MOL     1     -49.539  -0.237  22.652  1.00 -0.47     0.003 A 
HETATM   60  C   MOL     1     -49.986  -1.073  21.657  1.00 -0.37     0.037 A 
ENDBRANCH  54  55
ENDBRANCH  27  54
ENDBRANCH  25  27
ENDBRANCH  17  25
ENDBRANCH  16  17
ENDBRANCH  13  16
ENDBRANCH   8  13
ENDBRANCH   7   8
ENDBRANCH   3   7
TORSDOF 20
ENDMDL
MODEL 5
REMARK VINA RESULT:      -5.2      2.692      5.681
REMARK  20 active torsions:
REMARK  status: ('A' for Active; 'I' for Inactive)
REMARK    1  A    between atoms: C_3  and  C_7 
REMARK    2  A    between atoms: C_7  and  C_8 
REMARK    3  A    between atoms: C_8  and  N_9 
REMARK    4  A    between atoms: C_8  and  C_10 
REMARK    5  A    between atoms: C_10  and  O_11 
REMARK    6  A    between atoms: C_10  and  C_12 
REMARK    7  A    between atoms: C_12  and  C_13 
REMARK    8  A    between atoms: C_13  and  C_14 
REMARK    9  A    between atoms: C_13  and  N_21 
REMARK   10  A    between atoms: C_14  and  C_15 
REMARK   11  A    between atoms: N_21  and  P_22 
REMARK   12  A    between atoms: P_22  and  O_23 
REMARK   13  A    between atoms: P_22  and  O_24 
REMARK   14  A    between atoms: O_23  and  C_26 
REMARK   15  A    between atoms: O_24  and  C_27 
REMARK   16  A    between atoms: C_26  and  C_33 
REMARK   17  A    between atoms: C_35  and  C_40 
REMARK   18  A    between atoms: C_36  and  O_39 
REMARK   19  A    between atoms: C_37  and  O_38 
REMARK   20  A    between atoms: C_50  and  N_51 
ROOT
HETATM    1  C   MOL     1     -49.119  -2.454  14.105  1.00 -0.25     0.001 A 
HETATM    2  C   MOL     1     -47.902  -2.169  14.683  1.00 -0.30     0.007 A 
HETATM    3  C   MOL     1     -47.528  -2.787  15.856  1.00 -0.25    -0.056 A 
HETATM    4  C   MOL     1     -48.382  -3.694  16.447  1.00 -0.33     0.007 A 
HETATM    5  C   MOL     1     -49.599  -3.979  15.870  1.00 -0.34     0.001 A 
HETATM    6  C   MOL     1     -49.967  -3.359  14.699  1.00 -0.27     0.000 A 
ENDROOT
BRANCH   3   7
HETATM    7  C   MOL     1     -46.181  -2.474  16.493  1.00 -0.43     0.074 C 
BRANCH   7   8
HETATM    8  C   MOL     1     -45.361  -1.375  15.781  1.00 -0.43     0.216 C 
BRANCH   8   9
HETATM    9  N   MOL     1     -44.477  -2.015  14.744  1.00  0.05    -0.072 N 
HETATM   10  H   MOL     1     -44.825  -2.798  14.439  1.00 -0.64     0.274 HD
HETATM   11  H   MOL     1     -44.364  -1.475  14.020  1.00 -0.76     0.274 HD
HETATM   12  H   MOL     1     -43.645  -2.194  15.061  1.00 -0.15     0.274 HD
ENDBRANCH   8   9
BRANCH   8  13
HETATM   13  C   MOL     1     -44.530  -0.582  16.816  1.00 -0.29     0.150 C 
BRANCH  13  14
HETATM   14  O   MOL     1     -43.690  -1.479  17.563  1.00  0.06    -0.393 OA
HETATM   15  H   MOL     1     -43.878  -2.437  17.326  1.00 -0.27     0.210 HD
ENDBRANCH  13  14
BRANCH  13  16
HETATM   16  C   MOL     1     -45.442   0.193  17.792  1.00 -0.14     0.054 C 
BRANCH  16  17
HETATM   17  C   MOL     1     -44.642   0.777  18.978  1.00 -0.12     0.073 C 
BRANCH  17  18
HETATM   18  C   MOL     1     -43.712   1.901  18.468  1.00 -0.13     0.058 C 
BRANCH  18  19
HETATM   19  C   MOL     1     -42.405   2.066  19.227  1.00 -0.16    -0.057 A 
HETATM   20  C   MOL     1     -41.663   3.219  19.091  1.00 -0.21     0.007 A 
HETATM   21  C   MOL     1     -40.477   3.369  19.774  1.00 -0.25     0.001 A 
HETATM   22  C   MOL     1     -40.027   2.363  20.597  1.00 -0.37     0.000 A 
HETATM   23  C   MOL     1     -40.763   1.208  20.737  1.00 -0.40     0.001 A 
HETATM   24  C   MOL     1     -41.949   1.062  20.053  1.00 -0.21     0.007 A 
ENDBRANCH  18  19
ENDBRANCH  17  18
BRANCH  17  25
HETATM   25  N   MOL     1     -45.569   1.325  19.978  1.00  0.15    -0.221 NA
HETATM   26  H   MOL     1     -46.471   1.552  19.538  1.00  0.32     0.134 HD
BRANCH  25  27
HETATM   27  P   MOL     1     -45.772   0.437  21.180  1.00  0.09     0.413 P 
HETATM   28  O   MOL     1     -44.824  -0.733  21.166  1.00  0.07    -0.239 OA
BRANCH  27  29
HETATM   29  O   MOL     1     -47.291  -0.082  21.274  1.00  0.12    -0.299 OA
BRANCH  29  30
HETATM   30  C   MOL     1     -47.680  -0.887  22.397  1.00 -0.20     0.214 C 
BRANCH  30  31
HETATM   31  C   MOL     1     -48.874  -1.775  22.011  1.00 -0.04     0.180 C 
HETATM   32  O   MOL     1     -48.793  -2.194  20.638  1.00  0.26    -0.347 OA
HETATM   33  C   MOL     1     -50.112  -2.303  20.070  1.00 -0.04     0.222 C 
HETATM   34  C   MOL     1     -51.095  -1.870  21.184  1.00 -0.10     0.205 C 
HETATM   35  C   MOL     1     -50.344  -3.707  19.707  1.00 -0.21     0.107 C 
HETATM   36  C   MOL     1     -50.225  -1.061  22.155  1.00 -0.06     0.182 C 
HETATM   37  N   MOL     1     -50.524  -4.794  19.428  1.00  0.07    -0.193 NA
BRANCH  33  38
HETATM   38  C   MOL     1     -50.086  -1.424  18.825  1.00 -0.19     0.088 A 
HETATM   39  N   MOL     1     -51.106  -1.446  17.933  1.00 -0.03    -0.229 N 
HETATM   40  C   MOL     1     -50.754  -0.559  16.965  1.00 -0.22     0.104 A 
HETATM   41  N   MOL     1     -52.282  -2.137  17.862  1.00  0.23    -0.160 NA
HETATM   42  C   MOL     1     -49.549   0.007  17.232  1.00 -0.37     0.038 A 
HETATM   43  C   MOL     1     -51.653  -0.373  15.883  1.00 -0.44     0.151 A 
HETATM   44  C   MOL     1     -49.123  -0.559  18.436  1.00 -0.17     0.034 A 
HETATM   45  N   MOL     1     -52.811  -1.043  15.800  1.00 -0.19    -0.221 NA
HETATM   46  C   MOL     1     -53.060  -1.914  16.830  1.00 -0.33     0.258 A 
BRANCH  43  47
HETATM   47  N   MOL     1     -51.366   0.510  14.870  1.00 -0.25    -0.382 N 
HETATM   48  H   MOL     1     -50.531   0.631  14.619  1.00 -0.27     0.157 HD
HETATM   49  H   MOL     1     -52.012   0.956  14.470  1.00 -0.19     0.157 HD
ENDBRANCH  43  47
ENDBRANCH  33  38
BRANCH  34  50
HETATM   50  O   MOL     1     -52.208  -1.103  20.698  1.00  0.41    -0.388 OA
HETATM   51  H   MOL     1     -52.389  -1.295  19.727  1.00 -0.42     0.210 HD
ENDBRANCH  34  50
BRANCH  36  52
HETATM   52  O   MOL     1     -50.157   0.306  21.718  1.00  0.07    -0.390 OA
HETATM   53  H   MOL     1     -49.304   0.745  22.023  1.00 -0.09     0.210 HD
ENDBRANCH  36  52
ENDBRANCH  30  31
ENDBRANCH  29  30
ENDBRANCH  27  29
BRANCH  27  54
HETATM   54  O   MOL     1     -45.596   1.291  22.538  1.00  0.13    -0.260 OA
BRANCH  54  55
HETATM   55  C   MOL     1     -44.439   1.953  22.837  1.00 -0.29     0.080 A 
HETATM   56  C   MOL     1     -43.453   1.382  23.621  1.00 -0.28     0.037 A 
HETATM   57  C   MOL     1     -42.298   2.073  23.901  1.00 -0.40     0.003 A 
HETATM   58  C   MOL     1     -42.115   3.342  23.400  1.00 -0.35     0.000 A 
HETATM   59  C   MOL     1     -43.091   3.918  22.619  1.00 -0.47     0.003 A 
HETATM   60  C   MOL     1     -44.247   3.229  22.341  1.00 -0.37     0.037 A 
ENDBRANCH  54  55
ENDBRANCH  27  54
ENDBRANCH  25  27
ENDBRANCH  17  25
ENDBRANCH  16  17
ENDBRANCH  13  16
ENDBRANCH   8  13
ENDBRANCH   7   8
ENDBRANCH   3   7
TORSDOF 20
ENDMDL
MODEL 6
REMARK VINA RESULT:      -5.1      2.566      3.861
REMARK  20 active torsions:
REMARK  status: ('A' for Active; 'I' for Inactive)
REMARK    1  A    between atoms: C_3  and  C_7 
REMARK    2  A    between atoms: C_7  and  C_8 
REMARK    3  A    between atoms: C_8  and  N_9 
REMARK    4  A    between atoms: C_8  and  C_10 
REMARK    5  A    between atoms: C_10  and  O_11 
REMARK    6  A    between atoms: C_10  and  C_12 
REMARK    7  A    between atoms: C_12  and  C_13 
REMARK    8  A    between atoms: C_13  and  C_14 
REMARK    9  A    between atoms: C_13  and  N_21 
REMARK   10  A    between atoms: C_14  and  C_15 
REMARK   11  A    between atoms: N_21  and  P_22 
REMARK   12  A    between atoms: P_22  and  O_23 
REMARK   13  A    between atoms: P_22  and  O_24 
REMARK   14  A    between atoms: O_23  and  C_26 
REMARK   15  A    between atoms: O_24  and  C_27 
REMARK   16  A    between atoms: C_26  and  C_33 
REMARK   17  A    between atoms: C_35  and  C_40 
REMARK   18  A    between atoms: C_36  and  O_39 
REMARK   19  A    between atoms: C_37  and  O_38 
REMARK   20  A    between atoms: C_50  and  N_51 
ROOT
HETATM    1  C   MOL     1     -40.698   1.583  20.890  1.00 -0.25     0.001 A 
HETATM    2  C   MOL     1     -41.650   0.854  20.214  1.00 -0.30     0.007 A 
HETATM    3  C   MOL     1     -42.430   1.452  19.248  1.00 -0.25    -0.056 A 
HETATM    4  C   MOL     1     -42.248   2.789  18.964  1.00 -0.33     0.007 A 
HETATM    5  C   MOL     1     -41.298   3.520  19.639  1.00 -0.34     0.001 A 
HETATM    6  C   MOL     1     -40.523   2.917  20.603  1.00 -0.27     0.000 A 
ENDROOT
BRANCH   3   7
HETATM    7  C   MOL     1     -43.480   0.643  18.500  1.00 -0.43     0.074 C 
BRANCH   7   8
HETATM    8  C   MOL     1     -43.648  -0.815  18.981  1.00 -0.43     0.216 C 
BRANCH   8   9
HETATM    9  N   MOL     1     -43.000  -1.739  17.985  1.00  0.05    -0.072 N 
HETATM   10  H   MOL     1     -42.093  -1.699  18.026  1.00 -0.64     0.274 HD
HETATM   11  H   MOL     1     -43.234  -2.607  18.131  1.00 -0.76     0.274 HD
HETATM   12  H   MOL     1     -43.242  -1.551  17.130  1.00 -0.15     0.274 HD
ENDBRANCH   8   9
BRANCH   8  13
HETATM   13  C   MOL     1     -45.148  -1.143  19.159  1.00 -0.29     0.150 C 
BRANCH  13  14
HETATM   14  O   MOL     1     -45.581  -2.045  18.125  1.00  0.06    -0.393 OA
HETATM   15  H   MOL     1     -46.468  -2.461  18.352  1.00 -0.27     0.210 HD
ENDBRANCH  13  14
BRANCH  13  16
HETATM   16  C   MOL     1     -46.012   0.136  19.111  1.00 -0.14     0.054 C 
BRANCH  16  17
HETATM   17  C   MOL     1     -46.458   0.578  20.522  1.00 -0.12     0.073 C 
BRANCH  17  18
HETATM   18  C   MOL     1     -45.883   1.980  20.828  1.00 -0.13     0.058 C 
BRANCH  18  19
HETATM   19  C   MOL     1     -44.799   2.026  21.895  1.00 -0.16    -0.057 A 
HETATM   20  C   MOL     1     -44.390   0.868  22.520  1.00 -0.21     0.007 A 
HETATM   21  C   MOL     1     -43.411   0.908  23.488  1.00 -0.25     0.001 A 
HETATM   22  C   MOL     1     -42.839   2.109  23.837  1.00 -0.37     0.000 A 
HETATM   23  C   MOL     1     -43.244   3.269  23.215  1.00 -0.40     0.001 A 
HETATM   24  C   MOL     1     -44.221   3.226  22.247  1.00 -0.21     0.007 A 
ENDBRANCH  18  19
ENDBRANCH  17  18
BRANCH  17  25
HETATM   25  N   MOL     1     -47.925   0.627  20.584  1.00  0.15    -0.221 NA
HETATM   26  H   MOL     1     -48.324   0.505  19.644  1.00  0.32     0.134 HD
BRANCH  25  27
HETATM   27  P   MOL     1     -48.533  -0.356  21.553  1.00  0.09     0.413 P 
HETATM   28  O   MOL     1     -47.549  -1.429  21.938  1.00  0.07    -0.239 OA
BRANCH  27  29
HETATM   29  O   MOL     1     -49.868  -1.020  20.951  1.00  0.12    -0.299 OA
BRANCH  29  30
HETATM   30  C   MOL     1     -50.420  -2.176  21.599  1.00 -0.20     0.214 C 
BRANCH  30  31
HETATM   31  C   MOL     1     -50.491  -3.345  20.603  1.00 -0.04     0.180 C 
HETATM   32  O   MOL     1     -49.376  -3.329  19.696  1.00  0.26    -0.347 OA
HETATM   33  C   MOL     1     -49.777  -3.821  18.403  1.00 -0.04     0.222 C 
HETATM   34  C   MOL     1     -51.289  -4.129  18.512  1.00 -0.10     0.205 C 
HETATM   35  C   MOL     1     -49.028  -5.054  18.125  1.00 -0.21     0.107 C 
HETATM   36  C   MOL     1     -51.750  -3.311  19.725  1.00 -0.06     0.182 C 
HETATM   37  N   MOL     1     -48.449  -6.008  17.911  1.00  0.07    -0.193 NA
BRANCH  33  38
HETATM   38  C   MOL     1     -49.389  -2.724  17.418  1.00 -0.19     0.088 A 
HETATM   39  N   MOL     1     -49.452  -2.931  16.081  1.00 -0.03    -0.229 N 
HETATM   40  C   MOL     1     -49.040  -1.765  15.519  1.00 -0.22     0.104 A 
HETATM   41  N   MOL     1     -49.815  -3.997  15.308  1.00  0.23    -0.160 NA
HETATM   42  C   MOL     1     -48.723  -0.846  16.467  1.00 -0.37     0.038 A 
HETATM   43  C   MOL     1     -49.005  -1.693  14.102  1.00 -0.44     0.151 A 
HETATM   44  C   MOL     1     -48.951  -1.476  17.694  1.00 -0.17     0.034 A 
HETATM   45  N   MOL     1     -49.359  -2.729  13.330  1.00 -0.19    -0.221 NA
HETATM   46  C   MOL     1     -49.754  -3.856  14.006  1.00 -0.33     0.258 A 
BRANCH  43  47
HETATM   47  N   MOL     1     -48.603  -0.544  13.462  1.00 -0.25    -0.382 N 
HETATM   48  H   MOL     1     -47.970  -0.582  12.852  1.00 -0.27     0.157 HD
HETATM   49  H   MOL     1     -48.976   0.230  13.659  1.00 -0.19     0.157 HD
ENDBRANCH  43  47
ENDBRANCH  33  38
BRANCH  34  50
HETATM   50  O   MOL     1     -52.029  -3.790  17.328  1.00  0.41    -0.388 OA
HETATM   51  H   MOL     1     -53.007  -3.995  17.436  1.00 -0.42     0.210 HD
ENDBRANCH  34  50
BRANCH  36  52
HETATM   52  O   MOL     1     -52.076  -1.975  19.311  1.00  0.07    -0.390 OA
HETATM   53  H   MOL     1     -52.612  -1.977  18.459  1.00 -0.09     0.210 HD
ENDBRANCH  36  52
ENDBRANCH  30  31
ENDBRANCH  29  30
ENDBRANCH  27  29
BRANCH  27  54
HETATM   54  O   MOL     1     -49.070   0.414  22.864  1.00  0.13    -0.260 OA
BRANCH  54  55
HETATM   55  C   MOL     1     -48.270   1.239  23.605  1.00 -0.29     0.080 A 
HETATM   56  C   MOL     1     -47.418   0.748  24.577  1.00 -0.28     0.037 A 
HETATM   57  C   MOL     1     -46.622   1.603  25.302  1.00 -0.40     0.003 A 
HETATM   58  C   MOL     1     -46.669   2.958  25.062  1.00 -0.35     0.000 A 
HETATM   59  C   MOL     1     -47.515   3.455  24.097  1.00 -0.47     0.003 A 
HETATM   60  C   MOL     1     -48.312   2.600  23.374  1.00 -0.37     0.037 A 
ENDBRANCH  54  55
ENDBRANCH  27  54
ENDBRANCH  25  27
ENDBRANCH  17  25
ENDBRANCH  16  17
ENDBRANCH  13  16
ENDBRANCH   8  13
ENDBRANCH   7   8
ENDBRANCH   3   7
TORSDOF 20
ENDMDL
MODEL 7
REMARK VINA RESULT:      -5.1      3.229      4.972
REMARK  20 active torsions:
REMARK  status: ('A' for Active; 'I' for Inactive)
REMARK    1  A    between atoms: C_3  and  C_7 
REMARK    2  A    between atoms: C_7  and  C_8 
REMARK    3  A    between atoms: C_8  and  N_9 
REMARK    4  A    between atoms: C_8  and  C_10 
REMARK    5  A    between atoms: C_10  and  O_11 
REMARK    6  A    between atoms: C_10  and  C_12 
REMARK    7  A    between atoms: C_12  and  C_13 
REMARK    8  A    between atoms: C_13  and  C_14 
REMARK    9  A    between atoms: C_13  and  N_21 
REMARK   10  A    between atoms: C_14  and  C_15 
REMARK   11  A    between atoms: N_21  and  P_22 
REMARK   12  A    between atoms: P_22  and  O_23 
REMARK   13  A    between atoms: P_22  and  O_24 
REMARK   14  A    between atoms: O_23  and  C_26 
REMARK   15  A    between atoms: O_24  and  C_27 
REMARK   16  A    between atoms: C_26  and  C_33 
REMARK   17  A    between atoms: C_35  and  C_40 
REMARK   18  A    between atoms: C_36  and  O_39 
REMARK   19  A    between atoms: C_37  and  O_38 
REMARK   20  A    between atoms: C_50  and  N_51 
ROOT
HETATM    1  C   MOL     1     -43.071   1.156  19.593  1.00 -0.25     0.001 A 
HETATM    2  C   MOL     1     -43.745   1.050  18.397  1.00 -0.30     0.007 A 
HETATM    3  C   MOL     1     -44.157  -0.182  17.938  1.00 -0.25    -0.056 A 
HETATM    4  C   MOL     1     -43.890  -1.308  18.686  1.00 -0.33     0.007 A 
HETATM    5  C   MOL     1     -43.215  -1.204  19.881  1.00 -0.34     0.001 A 
HETATM    6  C   MOL     1     -42.806   0.029  20.335  1.00 -0.27     0.000 A 
ENDROOT
BRANCH   3   7
HETATM    7  C   MOL     1     -44.905  -0.297  16.617  1.00 -0.43     0.074 C 
BRANCH   7   8
HETATM    8  C   MOL     1     -45.009  -1.729  16.047  1.00 -0.43     0.216 C 
BRANCH   8   9
HETATM    9  N   MOL     1     -44.180  -1.821  14.794  1.00  0.05    -0.072 N 
HETATM   10  H   MOL     1     -44.383  -2.563  14.308  1.00 -0.64     0.274 HD
HETATM   11  H   MOL     1     -44.313  -1.103  14.250  1.00 -0.76     0.274 HD
HETATM   12  H   MOL     1     -43.289  -1.847  14.969  1.00 -0.15     0.274 HD
ENDBRANCH   8   9
BRANCH   8  13
HETATM   13  C   MOL     1     -46.489  -2.081  15.769  1.00 -0.29     0.150 C 
BRANCH  13  14
HETATM   14  O   MOL     1     -46.587  -2.898  14.589  1.00  0.06    -0.393 OA
HETATM   15  H   MOL     1     -45.853  -3.585  14.560  1.00 -0.27     0.210 HD
ENDBRANCH  13  14
BRANCH  13  16
HETATM   16  C   MOL     1     -47.341  -0.808  15.576  1.00 -0.14     0.054 C 
BRANCH  16  17
HETATM   17  C   MOL     1     -48.700  -0.915  16.303  1.00 -0.12     0.073 C 
BRANCH  17  18
HETATM   18  C   MOL     1     -48.923   0.348  17.166  1.00 -0.13     0.058 C 
BRANCH  18  19
HETATM   19  C   MOL     1     -48.093   0.428  18.438  1.00 -0.16    -0.057 A 
HETATM   20  C   MOL     1     -47.596   1.639  18.869  1.00 -0.21     0.007 A 
HETATM   21  C   MOL     1     -46.842   1.713  20.018  1.00 -0.25     0.001 A 
HETATM   22  C   MOL     1     -46.579   0.573  20.743  1.00 -0.37     0.000 A 
HETATM   23  C   MOL     1     -47.073  -0.640  20.317  1.00 -0.40     0.001 A 
HETATM   24  C   MOL     1     -47.828  -0.710  19.168  1.00 -0.21     0.007 A 
ENDBRANCH  18  19
ENDBRANCH  17  18
BRANCH  17  25
HETATM   25  N   MOL     1     -49.782  -1.029  15.315  1.00  0.15    -0.221 NA
HETATM   26  H   MOL     1     -49.391  -1.201  14.380  1.00  0.32     0.134 HD
BRANCH  25  27
HETATM   27  P   MOL     1     -50.820  -2.068  15.658  1.00  0.09     0.413 P 
HETATM   28  O   MOL     1     -50.919  -3.121  14.586  1.00  0.07    -0.239 OA
BRANCH  27  29
HETATM   29  O   MOL     1     -52.259  -1.395  15.907  1.00  0.12    -0.299 OA
BRANCH  29  30
HETATM   30  C   MOL     1     -52.919  -0.744  14.811  1.00 -0.20     0.214 C 
BRANCH  30  31
HETATM   31  C   MOL     1     -53.162   0.735  15.156  1.00 -0.04     0.180 C 
HETATM   32  O   MOL     1     -54.242   1.283  14.383  1.00  0.26    -0.347 OA
HETATM   33  C   MOL     1     -53.994   2.671  14.091  1.00 -0.04     0.222 C 
HETATM   34  C   MOL     1     -52.611   2.997  14.705  1.00 -0.10     0.205 C 
HETATM   35  C   MOL     1     -55.038   3.474  14.740  1.00 -0.21     0.107 C 
HETATM   36  C   MOL     1     -51.944   1.626  14.872  1.00 -0.06     0.182 C 
HETATM   37  N   MOL     1     -55.847   4.095  15.243  1.00  0.07    -0.193 NA
BRANCH  33  38
HETATM   38  C   MOL     1     -54.093   2.786  12.574  1.00 -0.19     0.088 A 
HETATM   39  N   MOL     1     -54.957   2.015  11.871  1.00 -0.03    -0.229 N 
HETATM   40  C   MOL     1     -54.779   2.373  10.571  1.00 -0.22     0.104 A 
HETATM   41  N   MOL     1     -55.862   1.054  12.219  1.00  0.23    -0.160 NA
HETATM   42  C   MOL     1     -53.831   3.338  10.453  1.00 -0.37     0.038 A 
HETATM   43  C   MOL     1     -55.569   1.717   9.593  1.00 -0.44     0.151 A 
HETATM   44  C   MOL     1     -53.391   3.598  11.753  1.00 -0.17     0.034 A 
HETATM   45  N   MOL     1     -56.461   0.771   9.919  1.00 -0.19    -0.221 NA
HETATM   46  C   MOL     1     -56.554   0.489  11.259  1.00 -0.33     0.258 A 
BRANCH  43  47
HETATM   47  N   MOL     1     -55.447   2.029   8.260  1.00 -0.25    -0.382 N 
HETATM   48  H   MOL     1     -55.576   2.858   7.992  1.00 -0.27     0.157 HD
HETATM   49  H   MOL     1     -55.239   1.407   7.673  1.00 -0.19     0.157 HD
ENDBRANCH  43  47
ENDBRANCH  33  38
BRANCH  34  50
HETATM   50  O   MOL     1     -51.820   3.882  13.896  1.00  0.41    -0.388 OA
HETATM   51  H   MOL     1     -51.762   3.555  12.946  1.00 -0.42     0.210 HD
ENDBRANCH  34  50
BRANCH  36  52
HETATM   52  O   MOL     1     -51.287   1.257  13.649  1.00  0.07    -0.390 OA
HETATM   53  H   MOL     1     -50.554   1.907  13.418  1.00 -0.09     0.210 HD
ENDBRANCH  36  52
ENDBRANCH  30  31
ENDBRANCH  29  30
ENDBRANCH  27  29
BRANCH  27  54
HETATM   54  O   MOL     1     -50.484  -2.742  17.084  1.00  0.13    -0.260 OA
BRANCH  54  55
HETATM   55  C   MOL     1     -50.239  -4.081  17.218  1.00 -0.29     0.080 A 
HETATM   56  C   MOL     1     -51.263  -4.999  17.362  1.00 -0.28     0.037 A 
HETATM   57  C   MOL     1     -50.984  -6.339  17.491  1.00 -0.40     0.003 A 
HETATM   58  C   MOL     1     -49.678  -6.775  17.474  1.00 -0.35     0.000 A 
HETATM   59  C   MOL     1     -48.653  -5.868  17.331  1.00 -0.47     0.003 A 
HETATM   60  C   MOL     1     -48.932  -4.528  17.206  1.00 -0.37     0.037 A 
ENDBRANCH  54  55
ENDBRANCH  27  54
ENDBRANCH  25  27
ENDBRANCH  17  25
ENDBRANCH  16  17
ENDBRANCH  13  16
ENDBRANCH   8  13
ENDBRANCH   7   8
ENDBRANCH   3   7
TORSDOF 20
ENDMDL
MODEL 8
REMARK VINA RESULT:      -5.0      2.749      4.707
REMARK  20 active torsions:
REMARK  status: ('A' for Active; 'I' for Inactive)
REMARK    1  A    between atoms: C_3  and  C_7 
REMARK    2  A    between atoms: C_7  and  C_8 
REMARK    3  A    between atoms: C_8  and  N_9 
REMARK    4  A    between atoms: C_8  and  C_10 
REMARK    5  A    between atoms: C_10  and  O_11 
REMARK    6  A    between atoms: C_10  and  C_12 
REMARK    7  A    between atoms: C_12  and  C_13 
REMARK    8  A    between atoms: C_13  and  C_14 
REMARK    9  A    between atoms: C_13  and  N_21 
REMARK   10  A    between atoms: C_14  and  C_15 
REMARK   11  A    between atoms: N_21  and  P_22 
REMARK   12  A    between atoms: P_22  and  O_23 
REMARK   13  A    between atoms: P_22  and  O_24 
REMARK   14  A    between atoms: O_23  and  C_26 
REMARK   15  A    between atoms: O_24  and  C_27 
REMARK   16  A    between atoms: C_26  and  C_33 
REMARK   17  A    between atoms: C_35  and  C_40 
REMARK   18  A    between atoms: C_36  and  O_39 
REMARK   19  A    between atoms: C_37  and  O_38 
REMARK   20  A    between atoms: C_50  and  N_51 
ROOT
HETATM    1  C   MOL     1     -43.086  -1.291  19.752  1.00 -0.25     0.001 A 
HETATM    2  C   MOL     1     -43.830  -1.363  18.596  1.00 -0.30     0.007 A 
HETATM    3  C   MOL     1     -44.146  -0.217  17.899  1.00 -0.25    -0.056 A 
HETATM    4  C   MOL     1     -43.710   1.004  18.369  1.00 -0.33     0.007 A 
HETATM    5  C   MOL     1     -42.967   1.078  19.525  1.00 -0.34     0.001 A 
HETATM    6  C   MOL     1     -42.655  -0.070  20.217  1.00 -0.27     0.000 A 
ENDROOT
BRANCH   3   7
HETATM    7  C   MOL     1     -44.967  -0.298  16.620  1.00 -0.43     0.074 C 
BRANCH   7   8
HETATM    8  C   MOL     1     -45.222  -1.730  16.097  1.00 -0.43     0.216 C 
BRANCH   8   9
HETATM    9  N   MOL     1     -44.544  -1.894  14.763  1.00  0.05    -0.072 N 
HETATM   10  H   MOL     1     -43.756  -1.440  14.726  1.00 -0.64     0.274 HD
HETATM   11  H   MOL     1     -44.355  -2.767  14.588  1.00 -0.76     0.274 HD
HETATM   12  H   MOL     1     -45.058  -1.601  14.074  1.00 -0.15     0.274 HD
ENDBRANCH   8   9
BRANCH   8  13
HETATM   13  C   MOL     1     -46.743  -1.989  15.989  1.00 -0.29     0.150 C 
BRANCH  13  14
HETATM   14  O   MOL     1     -47.033  -2.718  14.783  1.00  0.06    -0.393 OA
HETATM   15  H   MOL     1     -46.866  -3.702  14.902  1.00 -0.27     0.210 HD
ENDBRANCH  13  14
BRANCH  13  16
HETATM   16  C   MOL     1     -47.539  -0.667  15.988  1.00 -0.14     0.054 C 
BRANCH  16  17
HETATM   17  C   MOL     1     -48.620  -0.650  17.091  1.00 -0.12     0.073 C 
BRANCH  17  18
HETATM   18  C   MOL     1     -48.526   0.675  17.883  1.00 -0.13     0.058 C 
BRANCH  18  19
HETATM   19  C   MOL     1     -47.667   0.630  19.137  1.00 -0.16    -0.057 A 
HETATM   20  C   MOL     1     -47.140   1.791  19.659  1.00 -0.21     0.007 A 
HETATM   21  C   MOL     1     -46.359   1.753  20.793  1.00 -0.25     0.001 A 
HETATM   22  C   MOL     1     -46.100   0.550  21.408  1.00 -0.37     0.000 A 
HETATM   23  C   MOL     1     -46.624  -0.613  20.890  1.00 -0.40     0.001 A 
HETATM   24  C   MOL     1     -47.405  -0.572  19.758  1.00 -0.21     0.007 A 
ENDBRANCH  18  19
ENDBRANCH  17  18
BRANCH  17  25
HETATM   25  N   MOL     1     -49.952  -0.762  16.481  1.00  0.15    -0.221 NA
HETATM   26  H   MOL     1     -49.940  -0.369  15.531  1.00  0.32     0.134 HD
BRANCH  25  27
HETATM   27  P   MOL     1     -50.508  -2.163  16.471  1.00  0.09     0.413 P 
HETATM   28  O   MOL     1     -50.193  -2.871  15.179  1.00  0.07    -0.239 OA
BRANCH  27  29
HETATM   29  O   MOL     1     -52.095  -2.164  16.729  1.00  0.12    -0.299 OA
BRANCH  29  30
HETATM   30  C   MOL     1     -52.810  -0.922  16.656  1.00 -0.20     0.214 C 
BRANCH  30  31
HETATM   31  C   MOL     1     -54.175  -1.147  15.985  1.00 -0.04     0.180 C 
HETATM   32  O   MOL     1     -54.802  -2.350  16.463  1.00  0.26    -0.347 OA
HETATM   33  C   MOL     1     -55.569  -2.965  15.410  1.00 -0.04     0.222 C 
HETATM   34  C   MOL     1     -55.360  -2.084  14.156  1.00 -0.10     0.205 C 
HETATM   35  C   MOL     1     -56.983  -2.959  15.805  1.00 -0.21     0.107 C 
HETATM   36  C   MOL     1     -54.077  -1.300  14.460  1.00 -0.06     0.182 C 
HETATM   37  N   MOL     1     -58.078  -2.953  16.111  1.00  0.07    -0.193 NA
BRANCH  33  38
HETATM   38  C   MOL     1     -55.045  -4.394  15.316  1.00 -0.19     0.088 A 
HETATM   39  N   MOL     1     -55.641  -5.304  14.510  1.00 -0.03    -0.229 N 
HETATM   40  C   MOL     1     -54.927  -6.449  14.674  1.00 -0.22     0.104 A 
HETATM   41  N   MOL     1     -56.716  -5.258  13.668  1.00  0.23    -0.160 NA
HETATM   42  C   MOL     1     -53.911  -6.273  15.556  1.00 -0.37     0.038 A 
HETATM   43  C   MOL     1     -55.334  -7.591  13.936  1.00 -0.44     0.151 A 
HETATM   44  C   MOL     1     -53.995  -4.940  15.969  1.00 -0.17     0.034 A 
HETATM   45  N   MOL     1     -56.385  -7.562  13.105  1.00 -0.19    -0.221 NA
HETATM   46  C   MOL     1     -57.033  -6.355  13.022  1.00 -0.33     0.258 A 
BRANCH  43  47
HETATM   47  N   MOL     1     -54.657  -8.782  14.047  1.00 -0.25    -0.382 N 
HETATM   48  H   MOL     1     -53.966  -8.943  13.526  1.00 -0.27     0.157 HD
HETATM   49  H   MOL     1     -54.909  -9.385  14.638  1.00 -0.19     0.157 HD
ENDBRANCH  43  47
ENDBRANCH  33  38
BRANCH  34  50
HETATM   50  O   MOL     1     -55.250  -2.838  12.939  1.00  0.41    -0.388 OA
HETATM   51  H   MOL     1     -56.155  -3.110  12.594  1.00 -0.42     0.210 HD
ENDBRANCH  34  50
BRANCH  36  52
HETATM   52  O   MOL     1     -52.934  -2.078  14.073  1.00  0.07    -0.390 OA
HETATM   53  H   MOL     1     -52.088  -1.533  14.120  1.00 -0.09     0.210 HD
ENDBRANCH  36  52
ENDBRANCH  30  31
ENDBRANCH  29  30
ENDBRANCH  27  29
BRANCH  27  54
HETATM   54  O   MOL     1     -49.936  -2.998  17.727  1.00  0.13    -0.260 OA
BRANCH  54  55
HETATM   55  C   MOL     1     -49.856  -4.363  17.720  1.00 -0.29     0.080 A 
HETATM   56  C   MOL     1     -48.685  -5.023  17.397  1.00 -0.28     0.037 A 
HETATM   57  C   MOL     1     -48.636  -6.398  17.403  1.00 -0.40     0.003 A 
HETATM   58  C   MOL     1     -49.757  -7.125  17.733  1.00 -0.35     0.000 A 
HETATM   59  C   MOL     1     -50.927  -6.476  18.056  1.00 -0.47     0.003 A 
HETATM   60  C   MOL     1     -50.976  -5.102  18.047  1.00 -0.37     0.037 A 
ENDBRANCH  54  55
ENDBRANCH  27  54
ENDBRANCH  25  27
ENDBRANCH  17  25
ENDBRANCH  16  17
ENDBRANCH  13  16
ENDBRANCH   8  13
ENDBRANCH   7   8
ENDBRANCH   3   7
TORSDOF 20
ENDMDL
MODEL 9
REMARK VINA RESULT:      -5.0      9.103     14.198
REMARK  20 active torsions:
REMARK  status: ('A' for Active; 'I' for Inactive)
REMARK    1  A    between atoms: C_3  and  C_7 
REMARK    2  A    between atoms: C_7  and  C_8 
REMARK    3  A    between atoms: C_8  and  N_9 
REMARK    4  A    between atoms: C_8  and  C_10 
REMARK    5  A    between atoms: C_10  and  O_11 
REMARK    6  A    between atoms: C_10  and  C_12 
REMARK    7  A    between atoms: C_12  and  C_13 
REMARK    8  A    between atoms: C_13  and  C_14 
REMARK    9  A    between atoms: C_13  and  N_21 
REMARK   10  A    between atoms: C_14  and  C_15 
REMARK   11  A    between atoms: N_21  and  P_22 
REMARK   12  A    between atoms: P_22  and  O_23 
REMARK   13  A    between atoms: P_22  and  O_24 
REMARK   14  A    between atoms: O_23  and  C_26 
REMARK   15  A    between atoms: O_24  and  C_27 
REMARK   16  A    between atoms: C_26  and  C_33 
REMARK   17  A    between atoms: C_35  and  C_40 
REMARK   18  A    between atoms: C_36  and  O_39 
REMARK   19  A    between atoms: C_37  and  O_38 
REMARK   20  A    between atoms: C_50  and  N_51 
ROOT
HETATM    1  C   MOL     1     -58.746  -2.150   3.989  1.00 -0.25     0.001 A 
HETATM    2  C   MOL     1     -58.270  -1.008   4.594  1.00 -0.30     0.007 A 
HETATM    3  C   MOL     1     -57.698  -0.007   3.839  1.00 -0.25    -0.056 A 
HETATM    4  C   MOL     1     -57.606  -0.158   2.472  1.00 -0.33     0.007 A 
HETATM    5  C   MOL     1     -58.080  -1.299   1.865  1.00 -0.34     0.001 A 
HETATM    6  C   MOL     1     -58.650  -2.295   2.624  1.00 -0.27     0.000 A 
ENDROOT
BRANCH   3   7
HETATM    7  C   MOL     1     -57.175   1.255   4.510  1.00 -0.43     0.074 C 
BRANCH   7   8
HETATM    8  C   MOL     1     -58.118   1.874   5.565  1.00 -0.43     0.216 C 
BRANCH   8   9
HETATM    9  N   MOL     1     -59.014   2.881   4.893  1.00  0.05    -0.072 N 
HETATM   10  H   MOL     1     -58.616   3.696   4.827  1.00 -0.64     0.274 HD
HETATM   11  H   MOL     1     -59.233   2.623   4.048  1.00 -0.76     0.274 HD
HETATM   12  H   MOL     1     -59.798   2.996   5.336  1.00 -0.15     0.274 HD
ENDBRANCH   8   9
BRANCH   8  13
HETATM   13  C   MOL     1     -57.290   2.526   6.697  1.00 -0.29     0.150 C 
BRANCH  13  14
HETATM   14  O   MOL     1     -56.809   3.814   6.275  1.00  0.06    -0.393 OA
HETATM   15  H   MOL     1     -57.234   4.096   5.408  1.00 -0.27     0.210 HD
ENDBRANCH  13  14
BRANCH  13  16
HETATM   16  C   MOL     1     -56.089   1.641   7.093  1.00 -0.14     0.054 C 
BRANCH  16  17
HETATM   17  C   MOL     1     -56.408   0.762   8.323  1.00 -0.12     0.073 C 
BRANCH  17  18
HETATM   18  C   MOL     1     -56.321  -0.729   7.927  1.00 -0.13     0.058 C 
BRANCH  18  19
HETATM   19  C   MOL     1     -57.633  -1.497   7.969  1.00 -0.16    -0.057 A 
HETATM   20  C   MOL     1     -58.824  -0.829   8.157  1.00 -0.21     0.007 A 
HETATM   21  C   MOL     1     -60.012  -1.523   8.198  1.00 -0.25     0.001 A 
HETATM   22  C   MOL     1     -60.014  -2.891   8.054  1.00 -0.37     0.000 A 
HETATM   23  C   MOL     1     -58.827  -3.564   7.867  1.00 -0.40     0.001 A 
HETATM   24  C   MOL     1     -57.641  -2.867   7.825  1.00 -0.21     0.007 A 
ENDBRANCH  18  19
ENDBRANCH  17  18
BRANCH  17  25
HETATM   25  N   MOL     1     -55.442   1.042   9.394  1.00  0.15    -0.221 NA
HETATM   26  H   MOL     1     -54.657   1.595   9.028  1.00  0.32     0.134 HD
BRANCH  25  27
HETATM   27  P   MOL     1     -56.043   1.706  10.607  1.00  0.09     0.413 P 
HETATM   28  O   MOL     1     -57.380   2.323  10.290  1.00  0.07    -0.239 OA
BRANCH  27  29
HETATM   29  O   MOL     1     -55.053   2.817  11.217  1.00  0.12    -0.299 OA
BRANCH  29  30
HETATM   30  C   MOL     1     -54.725   2.761  12.613  1.00 -0.20     0.214 C 
BRANCH  30  31
HETATM   31  C   MOL     1     -53.739   3.889  12.960  1.00 -0.04     0.180 C 
HETATM   32  O   MOL     1     -54.167   5.147  12.409  1.00  0.26    -0.347 OA
HETATM   33  C   MOL     1     -53.025   5.941  12.035  1.00 -0.04     0.222 C 
HETATM   34  C   MOL     1     -51.781   5.076  12.345  1.00 -0.10     0.205 C 
HETATM   35  C   MOL     1     -53.017   7.156  12.861  1.00 -0.21     0.107 C 
HETATM   36  C   MOL     1     -52.328   3.644  12.409  1.00 -0.06     0.182 C 
HETATM   37  N   MOL     1     -53.011   8.095  13.501  1.00  0.07    -0.193 NA
BRANCH  33  38
HETATM   38  C   MOL     1     -53.245   6.292  10.567  1.00 -0.19     0.088 A 
HETATM   39  N   MOL     1     -52.465   7.207   9.944  1.00 -0.03    -0.229 N 
HETATM   40  C   MOL     1     -52.935   7.270   8.670  1.00 -0.22     0.104 A 
HETATM   41  N   MOL     1     -51.415   7.982  10.346  1.00  0.23    -0.160 NA
HETATM   42  C   MOL     1     -53.981   6.423   8.490  1.00 -0.37     0.038 A 
HETATM   43  C   MOL     1     -52.294   8.164   7.774  1.00 -0.44     0.151 A 
HETATM   44  C   MOL     1     -54.176   5.795   9.723  1.00 -0.17     0.034 A 
HETATM   45  N   MOL     1     -51.262   8.931   8.154  1.00 -0.19    -0.221 NA
HETATM   46  C   MOL     1     -50.875   8.787   9.462  1.00 -0.33     0.258 A 
BRANCH  43  47
HETATM   47  N   MOL     1     -52.712   8.278   6.469  1.00 -0.25    -0.382 N 
HETATM   48  H   MOL     1     -53.451   8.719   6.284  1.00 -0.27     0.157 HD
HETATM   49  H   MOL     1     -52.245   7.913   5.818  1.00 -0.19     0.157 HD
ENDBRANCH  43  47
ENDBRANCH  33  38
BRANCH  34  50
HETATM   50  O   MOL     1     -50.736   5.206  11.367  1.00  0.41    -0.388 OA
HETATM   51  H   MOL     1     -49.981   5.775  11.711  1.00 -0.42     0.210 HD
ENDBRANCH  34  50
BRANCH  36  52
HETATM   52  O   MOL     1     -52.360   3.081  11.088  1.00  0.07    -0.390 OA
HETATM   53  H   MOL     1     -52.064   3.750  10.398  1.00 -0.09     0.210 HD
ENDBRANCH  36  52
ENDBRANCH  30  31
ENDBRANCH  29  30
ENDBRANCH  27  29
BRANCH  27  54
HETATM   54  O   MOL     1     -56.183   0.644  11.813  1.00  0.13    -0.260 OA
BRANCH  54  55
HETATM   55  C   MOL     1     -57.026  -0.430  11.744  1.00 -0.29     0.080 A 
HETATM   56  C   MOL     1     -58.396  -0.291  11.870  1.00 -0.28     0.037 A 
HETATM   57  C   MOL     1     -59.218  -1.391  11.792  1.00 -0.40     0.003 A 
HETATM   58  C   MOL     1     -58.679  -2.640  11.586  1.00 -0.35     0.000 A 
HETATM   59  C   MOL     1     -57.316  -2.788  11.460  1.00 -0.47     0.003 A 
HETATM   60  C   MOL     1     -56.494  -1.689  11.541  1.00 -0.37     0.037 A 
ENDBRANCH  54  55
ENDBRANCH  27  54
ENDBRANCH  25  27
ENDBRANCH  17  25
ENDBRANCH  16  17
ENDBRANCH  13  16
ENDBRANCH   8  13
ENDBRANCH   7   8
ENDBRANCH   3   7
TORSDOF 20
ENDMDL
MODEL 10
REMARK VINA RESULT:      -5.0      2.722      6.513
REMARK  20 active torsions:
REMARK  status: ('A' for Active; 'I' for Inactive)
REMARK    1  A    between atoms: C_3  and  C_7 
REMARK    2  A    between atoms: C_7  and  C_8 
REMARK    3  A    between atoms: C_8  and  N_9 
REMARK    4  A    between atoms: C_8  and  C_10 
REMARK    5  A    between atoms: C_10  and  O_11 
REMARK    6  A    between atoms: C_10  and  C_12 
REMARK    7  A    between atoms: C_12  and  C_13 
REMARK    8  A    between atoms: C_13  and  C_14 
REMARK    9  A    between atoms: C_13  and  N_21 
REMARK   10  A    between atoms: C_14  and  C_15 
REMARK   11  A    between atoms: N_21  and  P_22 
REMARK   12  A    between atoms: P_22  and  O_23 
REMARK   13  A    between atoms: P_22  and  O_24 
REMARK   14  A    between atoms: O_23  and  C_26 
REMARK   15  A    between atoms: O_24  and  C_27 
REMARK   16  A    between atoms: C_26  and  C_33 
REMARK   17  A    between atoms: C_35  and  C_40 
REMARK   18  A    between atoms: C_36  and  O_39 
REMARK   19  A    between atoms: C_37  and  O_38 
REMARK   20  A    between atoms: C_50  and  N_51 
ROOT
HETATM    1  C   MOL     1     -52.499   1.574  19.646  1.00 -0.25     0.001 A 
HETATM    2  C   MOL     1     -51.523   1.417  20.604  1.00 -0.30     0.007 A 
HETATM    3  C   MOL     1     -50.219   1.772  20.336  1.00 -0.25    -0.056 A 
HETATM    4  C   MOL     1     -49.899   2.288  19.098  1.00 -0.33     0.007 A 
HETATM    5  C   MOL     1     -50.873   2.445  18.138  1.00 -0.34     0.001 A 
HETATM    6  C   MOL     1     -52.173   2.088  18.412  1.00 -0.27     0.000 A 
ENDROOT
BRANCH   3   7
HETATM    7  C   MOL     1     -49.143   1.600  21.397  1.00 -0.43     0.074 C 
BRANCH   7   8
HETATM    8  C   MOL     1     -49.131   0.225  22.101  1.00 -0.43     0.216 C 
BRANCH   8   9
HETATM    9  N   MOL     1     -48.787   0.419  23.554  1.00  0.05    -0.072 N 
HETATM   10  H   MOL     1     -48.792  -0.367  24.011  1.00 -0.64     0.274 HD
HETATM   11  H   MOL     1     -47.957   0.780  23.657  1.00 -0.76     0.274 HD
HETATM   12  H   MOL     1     -49.363   0.981  23.974  1.00 -0.15     0.274 HD
ENDBRANCH   8   9
BRANCH   8  13
HETATM   13  C   MOL     1     -48.122  -0.717  21.405  1.00 -0.29     0.150 C 
BRANCH  13  14
HETATM   14  O   MOL     1     -48.690  -2.032  21.268  1.00  0.06    -0.393 OA
HETATM   15  H   MOL     1     -48.791  -2.287  20.301  1.00 -0.27     0.210 HD
ENDBRANCH  13  14
BRANCH  13  16
HETATM   16  C   MOL     1     -46.803  -0.814  22.203  1.00 -0.14     0.054 C 
BRANCH  16  17
HETATM   17  C   MOL     1     -45.636  -0.125  21.462  1.00 -0.12     0.073 C 
BRANCH  17  18
HETATM   18  C   MOL     1     -44.356  -0.216  22.323  1.00 -0.13     0.058 C 
BRANCH  18  19
HETATM   19  C   MOL     1     -43.741   1.115  22.728  1.00 -0.16    -0.057 A 
HETATM   20  C   MOL     1     -44.232   2.293  22.209  1.00 -0.21     0.007 A 
HETATM   21  C   MOL     1     -43.675   3.499  22.573  1.00 -0.25     0.001 A 
HETATM   22  C   MOL     1     -42.622   3.531  23.457  1.00 -0.37     0.000 A 
HETATM   23  C   MOL     1     -42.128   2.357  23.979  1.00 -0.40     0.001 A 
HETATM   24  C   MOL     1     -42.687   1.153  23.615  1.00 -0.21     0.007 A 
ENDBRANCH  18  19
ENDBRANCH  17  18
BRANCH  17  25
HETATM   25  N   MOL     1     -45.407  -0.792  20.173  1.00  0.15    -0.221 NA
HETATM   26  H   MOL     1     -46.110  -1.527  20.024  1.00  0.32     0.134 HD
BRANCH  25  27
HETATM   27  P   MOL     1     -45.361   0.148  18.994  1.00  0.09     0.413 P 
HETATM   28  O   MOL     1     -45.851   1.523  19.368  1.00  0.07    -0.239 OA
BRANCH  27  29
HETATM   29  O   MOL     1     -46.212  -0.424  17.756  1.00  0.12    -0.299 OA
BRANCH  29  30
HETATM   30  C   MOL     1     -45.563  -0.590  16.487  1.00 -0.20     0.214 C 
BRANCH  30  31
HETATM   31  C   MOL     1     -46.613  -0.871  15.399  1.00 -0.04     0.180 C 
HETATM   32  O   MOL     1     -47.876  -0.265  15.721  1.00  0.26    -0.347 OA
HETATM   33  C   MOL     1     -48.959  -1.083  15.239  1.00 -0.04     0.222 C 
HETATM   34  C   MOL     1     -48.303  -2.329  14.599  1.00 -0.10     0.205 C 
HETATM   35  C   MOL     1     -49.698  -0.320  14.225  1.00 -0.21     0.107 C 
HETATM   36  C   MOL     1     -46.898  -2.368  15.212  1.00 -0.06     0.182 C 
HETATM   37  N   MOL     1     -50.268   0.270  13.438  1.00  0.07    -0.193 NA
BRANCH  33  38
HETATM   38  C   MOL     1     -49.837  -1.344  16.459  1.00 -0.19     0.088 A 
HETATM   39  N   MOL     1     -51.065  -1.901  16.328  1.00 -0.03    -0.229 N 
HETATM   40  C   MOL     1     -51.556  -1.983  17.593  1.00 -0.22     0.104 A 
HETATM   41  N   MOL     1     -51.795  -2.334  15.258  1.00  0.23    -0.160 NA
HETATM   42  C   MOL     1     -50.671  -1.493  18.497  1.00 -0.37     0.038 A 
HETATM   43  C   MOL     1     -52.851  -2.539  17.761  1.00 -0.44     0.151 A 
HETATM   44  C   MOL     1     -49.561  -1.080  17.754  1.00 -0.17     0.034 A 
HETATM   45  N   MOL     1     -53.580  -2.969  16.722  1.00 -0.19    -0.221 NA
HETATM   46  C   MOL     1     -52.985  -2.834  15.493  1.00 -0.33     0.258 A 
BRANCH  43  47
HETATM   47  N   MOL     1     -53.411  -2.658  19.011  1.00 -0.25    -0.382 N 
HETATM   48  H   MOL     1     -54.212  -2.325  19.165  1.00 -0.27     0.157 HD
HETATM   49  H   MOL     1     -52.975  -3.065  19.659  1.00 -0.19     0.157 HD
ENDBRANCH  43  47
ENDBRANCH  33  38
BRANCH  34  50
HETATM   50  O   MOL     1     -49.027  -3.546  14.843  1.00  0.41    -0.388 OA
HETATM   51  H   MOL     1     -48.801  -3.931  15.744  1.00 -0.42     0.210 HD
ENDBRANCH  34  50
BRANCH  36  52
HETATM   52  O   MOL     1     -46.938  -3.065  16.467  1.00  0.07    -0.390 OA
HETATM   53  H   MOL     1     -46.833  -4.058  16.337  1.00 -0.09     0.210 HD
ENDBRANCH  36  52
ENDBRANCH  30  31
ENDBRANCH  29  30
ENDBRANCH  27  29
BRANCH  27  54
HETATM   54  O   MOL     1     -43.863   0.224  18.401  1.00  0.13    -0.260 OA
BRANCH  54  55
HETATM   55  C   MOL     1     -42.885   0.982  18.983  1.00 -0.29     0.080 A 
HETATM   56  C   MOL     1     -41.942   0.429  19.830  1.00 -0.28     0.037 A 
HETATM   57  C   MOL     1     -40.969   1.218  20.398  1.00 -0.40     0.003 A 
HETATM   58  C   MOL     1     -40.928   2.566  20.123  1.00 -0.35     0.000 A 
HETATM   59  C   MOL     1     -41.863   3.124  19.282  1.00 -0.47     0.003 A 
HETATM   60  C   MOL     1     -42.838   2.337  18.717  1.00 -0.37     0.037 A 
ENDBRANCH  54  55
ENDBRANCH  27  54
ENDBRANCH  25  27
ENDBRANCH  17  25
ENDBRANCH  16  17
ENDBRANCH  13  16
ENDBRANCH   8  13
ENDBRANCH   7   8
ENDBRANCH   3   7
TORSDOF 20
ENDMDL
