MODEL 1
REMARK VINA RESULT:      -5.7      0.000      0.000
REMARK  20 active torsions:
REMARK  status: ('A' for Active; 'I' for Inactive)
REMARK    1  A    between atoms: C_3  and  C_7 
REMARK    2  A    between atoms: C_7  and  C_8 
REMARK    3  A    between atoms: C_8  and  N_9 
REMARK    4  A    between atoms: C_8  and  C_10 
REMARK    5  A    between atoms: C_10  and  O_11 
REMARK    6  A    between atoms: C_10  and  C_12 
REMARK    7  A    between atoms: C_12  and  C_13 
REMARK    8  A    between atoms: C_13  and  C_14 
REMARK    9  A    between atoms: C_13  and  N_21 
REMARK   10  A    between atoms: C_14  and  C_15 
REMARK   11  A    between atoms: N_21  and  P_22 
REMARK   12  A    between atoms: P_22  and  O_23 
REMARK   13  A    between atoms: P_22  and  O_24 
REMARK   14  A    between atoms: O_23  and  C_26 
REMARK   15  A    between atoms: O_24  and  C_27 
REMARK   16  A    between atoms: C_26  and  C_33 
REMARK   17  A    between atoms: C_35  and  C_40 
REMARK   18  A    between atoms: C_36  and  O_39 
REMARK   19  A    between atoms: C_37  and  O_38 
REMARK   20  A    between atoms: C_50  and  N_51 
ROOT
HETATM    1  C   MOL     1     -42.358   2.655  19.782  1.00 -0.25     0.001 A 
HETATM    2  C   MOL     1     -43.013   1.958  18.792  1.00 -0.30     0.007 A 
HETATM    3  C   MOL     1     -43.236   0.605  18.924  1.00 -0.25    -0.056 A 
HETATM    4  C   MOL     1     -42.798  -0.046  20.058  1.00 -0.33     0.007 A 
HETATM    5  C   MOL     1     -42.142   0.648  21.048  1.00 -0.34     0.001 A 
HETATM    6  C   MOL     1     -41.922   1.999  20.910  1.00 -0.27     0.000 A 
ENDROOT
BRANCH   3   7
HETATM    7  C   MOL     1     -43.963  -0.164  17.830  1.00 -0.43     0.074 C 
BRANCH   7   8
HETATM    8  C   MOL     1     -44.361  -1.610  18.200  1.00 -0.43     0.216 C 
BRANCH   8   9
HETATM    9  N   MOL     1     -43.338  -2.560  17.637  1.00  0.05    -0.072 N 
HETATM   10  H   MOL     1     -43.541  -2.810  16.786  1.00 -0.64     0.274 HD
HETATM   11  H   MOL     1     -42.509  -2.185  17.612  1.00 -0.76     0.274 HD
HETATM   12  H   MOL     1     -43.260  -3.318  18.131  1.00 -0.15     0.274 HD
ENDBRANCH   8   9
BRANCH   8  13
HETATM   13  C   MOL     1     -45.776  -1.923  17.661  1.00 -0.29     0.150 C 
BRANCH  13  14
HETATM   14  O   MOL     1     -45.681  -2.588  16.388  1.00  0.06    -0.393 OA
HETATM   15  H   MOL     1     -45.063  -3.379  16.435  1.00 -0.27     0.210 HD
ENDBRANCH  13  14
BRANCH  13  16
HETATM   16  C   MOL     1     -46.613  -0.636  17.500  1.00 -0.14     0.054 C 
BRANCH  16  17
HETATM   17  C   MOL     1     -47.339  -0.260  18.811  1.00 -0.12     0.073 C 
BRANCH  17  18
HETATM   18  C   MOL     1     -46.860   1.132  19.283  1.00 -0.13     0.058 C 
BRANCH  18  19
HETATM   19  C   MOL     1     -46.260   1.181  20.680  1.00 -0.16    -0.057 A 
HETATM   20  C   MOL     1     -46.106   0.023  21.410  1.00 -0.21     0.007 A 
HETATM   21  C   MOL     1     -45.566   0.065  22.676  1.00 -0.25     0.001 A 
HETATM   22  C   MOL     1     -45.179   1.269  23.218  1.00 -0.37     0.000 A 
HETATM   23  C   MOL     1     -45.331   2.429  22.493  1.00 -0.40     0.001 A 
HETATM   24  C   MOL     1     -45.870   2.384  21.227  1.00 -0.21     0.007 A 
ENDBRANCH  18  19
ENDBRANCH  17  18
BRANCH  17  25
HETATM   25  N   MOL     1     -48.790  -0.226  18.580  1.00  0.15    -0.221 NA
HETATM   26  H   MOL     1     -48.994  -0.377  17.584  1.00  0.32     0.134 HD
BRANCH  25  27
HETATM   27  P   MOL     1     -49.571  -1.192  19.436  1.00  0.09     0.413 P 
HETATM   28  O   MOL     1     -48.658  -2.127  20.184  1.00  0.07    -0.239 OA
BRANCH  27  29
HETATM   29  O   MOL     1     -50.624  -2.031  18.557  1.00  0.12    -0.299 OA
BRANCH  29  30
HETATM   30  C   MOL     1     -50.134  -3.062  17.687  1.00 -0.20     0.214 C 
BRANCH  30  31
HETATM   31  C   MOL     1     -50.175  -2.573  16.229  1.00 -0.04     0.180 C 
HETATM   32  O   MOL     1     -49.894  -1.166  16.140  1.00  0.26    -0.347 OA
HETATM   33  C   MOL     1     -50.643  -0.574  15.062  1.00 -0.04     0.222 C 
HETATM   34  C   MOL     1     -51.497  -1.714  14.458  1.00 -0.10     0.205 C 
HETATM   35  C   MOL     1     -49.693  -0.069  14.063  1.00 -0.21     0.107 C 
HETATM   36  C   MOL     1     -51.546  -2.773  15.568  1.00 -0.06     0.182 C 
HETATM   37  N   MOL     1     -48.957   0.322  13.289  1.00  0.07    -0.193 NA
BRANCH  33  38
HETATM   38  C   MOL     1     -51.418   0.575  15.696  1.00 -0.19     0.088 A 
HETATM   39  N   MOL     1     -51.964   1.553  14.934  1.00 -0.03    -0.229 N 
HETATM   40  C   MOL     1     -52.565   2.398  15.813  1.00 -0.22     0.104 A 
HETATM   41  N   MOL     1     -51.996   1.795  13.590  1.00  0.23    -0.160 NA
HETATM   42  C   MOL     1     -52.406   1.971  17.092  1.00 -0.37     0.038 A 
HETATM   43  C   MOL     1     -53.231   3.534  15.285  1.00 -0.44     0.151 A 
HETATM   44  C   MOL     1     -51.660   0.792  17.008  1.00 -0.17     0.034 A 
HETATM   45  N   MOL     1     -53.271   3.785  13.969  1.00 -0.19    -0.221 NA
HETATM   46  C   MOL     1     -52.628   2.868  13.177  1.00 -0.33     0.258 A 
BRANCH  43  47
HETATM   47  N   MOL     1     -53.865   4.430  16.113  1.00 -0.25    -0.382 N 
HETATM   48  H   MOL     1     -54.700   4.658  15.953  1.00 -0.27     0.157 HD
HETATM   49  H   MOL     1     -53.442   4.776  16.804  1.00 -0.19     0.157 HD
ENDBRANCH  43  47
ENDBRANCH  33  38
BRANCH  34  50
HETATM   50  O   MOL     1     -52.813  -1.295  14.062  1.00  0.41    -0.388 OA
HETATM   51  H   MOL     1     -53.436  -2.079  13.975  1.00 -0.42     0.210 HD
ENDBRANCH  34  50
BRANCH  36  52
HETATM   52  O   MOL     1     -52.623  -2.477  16.470  1.00  0.07    -0.390 OA
HETATM   53  H   MOL     1     -53.462  -2.968  16.211  1.00 -0.09     0.210 HD
ENDBRANCH  36  52
ENDBRANCH  30  31
ENDBRANCH  29  30
ENDBRANCH  27  29
BRANCH  27  54
HETATM   54  O   MOL     1     -50.518  -0.385  20.463  1.00  0.13    -0.260 OA
BRANCH  54  55
HETATM   55  C   MOL     1     -50.059   0.670  21.202  1.00 -0.29     0.080 A 
HETATM   56  C   MOL     1     -50.122   1.970  20.733  1.00 -0.28     0.037 A 
HETATM   57  C   MOL     1     -49.656   3.010  21.503  1.00 -0.40     0.003 A 
HETATM   58  C   MOL     1     -49.124   2.762  22.748  1.00 -0.35     0.000 A 
HETATM   59  C   MOL     1     -49.058   1.471  23.221  1.00 -0.47     0.003 A 
HETATM   60  C   MOL     1     -49.521   0.431  22.451  1.00 -0.37     0.037 A 
ENDBRANCH  54  55
ENDBRANCH  27  54
ENDBRANCH  25  27
ENDBRANCH  17  25
ENDBRANCH  16  17
ENDBRANCH  13  16
ENDBRANCH   8  13
ENDBRANCH   7   8
ENDBRANCH   3   7
TORSDOF 20
ENDMDL
MODEL 2
REMARK VINA RESULT:      -5.6      2.169      3.257
REMARK  20 active torsions:
REMARK  status: ('A' for Active; 'I' for Inactive)
REMARK    1  A    between atoms: C_3  and  C_7 
REMARK    2  A    between atoms: C_7  and  C_8 
REMARK    3  A    between atoms: C_8  and  N_9 
REMARK    4  A    between atoms: C_8  and  C_10 
REMARK    5  A    between atoms: C_10  and  O_11 
REMARK    6  A    between atoms: C_10  and  C_12 
REMARK    7  A    between atoms: C_12  and  C_13 
REMARK    8  A    between atoms: C_13  and  C_14 
REMARK    9  A    between atoms: C_13  and  N_21 
REMARK   10  A    between atoms: C_14  and  C_15 
REMARK   11  A    between atoms: N_21  and  P_22 
REMARK   12  A    between atoms: P_22  and  O_23 
REMARK   13  A    between atoms: P_22  and  O_24 
REMARK   14  A    between atoms: O_23  and  C_26 
REMARK   15  A    between atoms: O_24  and  C_27 
REMARK   16  A    between atoms: C_26  and  C_33 
REMARK   17  A    between atoms: C_35  and  C_40 
REMARK   18  A    between atoms: C_36  and  O_39 
REMARK   19  A    between atoms: C_37  and  O_38 
REMARK   20  A    between atoms: C_50  and  N_51 
ROOT
HETATM    1  C   MOL     1     -43.354   1.165  19.252  1.00 -0.25     0.001 A 
HETATM    2  C   MOL     1     -44.109   0.924  18.126  1.00 -0.30     0.007 A 
HETATM    3  C   MOL     1     -44.316  -0.366  17.689  1.00 -0.25    -0.056 A 
HETATM    4  C   MOL     1     -43.761  -1.416  18.390  1.00 -0.33     0.007 A 
HETATM    5  C   MOL     1     -43.005  -1.177  19.515  1.00 -0.34     0.001 A 
HETATM    6  C   MOL     1     -42.802   0.114  19.946  1.00 -0.27     0.000 A 
ENDROOT
BRANCH   3   7
HETATM    7  C   MOL     1     -45.153  -0.630  16.446  1.00 -0.43     0.074 C 
BRANCH   7   8
HETATM    8  C   MOL     1     -45.555  -2.106  16.229  1.00 -0.43     0.216 C 
BRANCH   8   9
HETATM    9  N   MOL     1     -45.613  -2.388  14.751  1.00  0.05    -0.072 N 
HETATM   10  H   MOL     1     -44.865  -2.099  14.322  1.00 -0.64     0.274 HD
HETATM   11  H   MOL     1     -45.688  -3.279  14.582  1.00 -0.76     0.274 HD
HETATM   12  H   MOL     1     -46.325  -1.992  14.351  1.00 -0.15     0.274 HD
ENDBRANCH   8   9
BRANCH   8  13
HETATM   13  C   MOL     1     -46.914  -2.389  16.909  1.00 -0.29     0.150 C 
BRANCH  13  14
HETATM   14  O   MOL     1     -47.542  -3.530  16.297  1.00  0.06    -0.393 OA
HETATM   15  H   MOL     1     -47.161  -4.390  16.652  1.00 -0.27     0.210 HD
ENDBRANCH  13  14
BRANCH  13  16
HETATM   16  C   MOL     1     -47.859  -1.172  16.802  1.00 -0.14     0.054 C 
BRANCH  16  17
HETATM   17  C   MOL     1     -48.458  -0.793  18.175  1.00 -0.12     0.073 C 
BRANCH  17  18
HETATM   18  C   MOL     1     -48.098   0.673  18.506  1.00 -0.13     0.058 C 
BRANCH  18  19
HETATM   19  C   MOL     1     -47.274   0.877  19.768  1.00 -0.16    -0.057 A 
HETATM   20  C   MOL     1     -46.807  -0.209  20.476  1.00 -0.21     0.007 A 
HETATM   21  C   MOL     1     -46.063  -0.026  21.621  1.00 -0.25     0.001 A 
HETATM   22  C   MOL     1     -45.785   1.246  22.063  1.00 -0.37     0.000 A 
HETATM   23  C   MOL     1     -46.250   2.335  21.360  1.00 -0.40     0.001 A 
HETATM   24  C   MOL     1     -46.992   2.149  20.215  1.00 -0.21     0.007 A 
ENDBRANCH  18  19
ENDBRANCH  17  18
BRANCH  17  25
HETATM   25  N   MOL     1     -49.919  -0.941  18.134  1.00  0.15    -0.221 NA
HETATM   26  H   MOL     1     -50.231  -1.118  17.170  1.00  0.32     0.134 HD
BRANCH  25  27
HETATM   27  P   MOL     1     -50.458  -1.994  19.069  1.00  0.09     0.413 P 
HETATM   28  O   MOL     1     -49.350  -2.840  19.641  1.00  0.07    -0.239 OA
BRANCH  27  29
HETATM   29  O   MOL     1     -51.544  -2.927  18.337  1.00  0.12    -0.299 OA
BRANCH  29  30
HETATM   30  C   MOL     1     -52.894  -2.930  18.822  1.00 -0.20     0.214 C 
BRANCH  30  31
HETATM   31  C   MOL     1     -53.853  -2.515  17.694  1.00 -0.04     0.180 C 
HETATM   32  O   MOL     1     -53.232  -2.647  16.404  1.00  0.26    -0.347 OA
HETATM   33  C   MOL     1     -53.712  -1.623  15.512  1.00 -0.04     0.222 C 
HETATM   34  C   MOL     1     -54.686  -0.754  16.342  1.00 -0.10     0.205 C 
HETATM   35  C   MOL     1     -54.427  -2.272  14.406  1.00 -0.21     0.107 C 
HETATM   36  C   MOL     1     -54.305  -1.052  17.798  1.00 -0.06     0.182 C 
HETATM   37  N   MOL     1     -54.982  -2.775  13.551  1.00  0.07    -0.193 NA
BRANCH  33  38
HETATM   38  C   MOL     1     -52.460  -0.918  15.001  1.00 -0.19     0.088 A 
HETATM   39  N   MOL     1     -51.378  -1.624  14.593  1.00 -0.03    -0.229 N 
HETATM   40  C   MOL     1     -50.465  -0.691  14.213  1.00 -0.22     0.104 A 
HETATM   41  N   MOL     1     -51.096  -2.958  14.518  1.00  0.23    -0.160 NA
HETATM   42  C   MOL     1     -50.950   0.567  14.376  1.00 -0.37     0.038 A 
HETATM   43  C   MOL     1     -49.213  -1.153  13.732  1.00 -0.44     0.151 A 
HETATM   44  C   MOL     1     -52.241   0.411  14.888  1.00 -0.17     0.034 A 
HETATM   45  N   MOL     1     -48.921  -2.458  13.651  1.00 -0.19    -0.221 NA
HETATM   46  C   MOL     1     -49.916  -3.308  14.065  1.00 -0.33     0.258 A 
BRANCH  43  47
HETATM   47  N   MOL     1     -48.242  -0.268  13.326  1.00 -0.25    -0.382 N 
HETATM   48  H   MOL     1     -47.487  -0.571  12.991  1.00 -0.27     0.157 HD
HETATM   49  H   MOL     1     -48.372   0.600  13.397  1.00 -0.19     0.157 HD
ENDBRANCH  43  47
ENDBRANCH  33  38
BRANCH  34  50
HETATM   50  O   MOL     1     -54.599   0.648  16.042  1.00  0.41    -0.388 OA
HETATM   51  H   MOL     1     -55.289   0.921  15.363  1.00 -0.42     0.210 HD
ENDBRANCH  34  50
BRANCH  36  52
HETATM   52  O   MOL     1     -53.231  -0.188  18.201  1.00  0.07    -0.390 OA
HETATM   53  H   MOL     1     -53.569   0.730  18.437  1.00 -0.09     0.210 HD
ENDBRANCH  36  52
ENDBRANCH  30  31
ENDBRANCH  29  30
ENDBRANCH  27  29
BRANCH  27  54
HETATM   54  O   MOL     1     -51.310  -1.305  20.252  1.00  0.13    -0.260 OA
BRANCH  54  55
HETATM   55  C   MOL     1     -50.794  -0.314  21.041  1.00 -0.29     0.080 A 
HETATM   56  C   MOL     1     -51.002   1.024  20.761  1.00 -0.28     0.037 A 
HETATM   57  C   MOL     1     -50.472   1.996  21.576  1.00 -0.40     0.003 A 
HETATM   58  C   MOL     1     -49.732   1.641  22.681  1.00 -0.35     0.000 A 
HETATM   59  C   MOL     1     -49.521   0.311  22.967  1.00 -0.47     0.003 A 
HETATM   60  C   MOL     1     -50.047  -0.661  22.151  1.00 -0.37     0.037 A 
ENDBRANCH  54  55
ENDBRANCH  27  54
ENDBRANCH  25  27
ENDBRANCH  17  25
ENDBRANCH  16  17
ENDBRANCH  13  16
ENDBRANCH   8  13
ENDBRANCH   7   8
ENDBRANCH   3   7
TORSDOF 20
ENDMDL
MODEL 3
REMARK VINA RESULT:      -5.5      3.953      6.695
REMARK  20 active torsions:
REMARK  status: ('A' for Active; 'I' for Inactive)
REMARK    1  A    between atoms: C_3  and  C_7 
REMARK    2  A    between atoms: C_7  and  C_8 
REMARK    3  A    between atoms: C_8  and  N_9 
REMARK    4  A    between atoms: C_8  and  C_10 
REMARK    5  A    between atoms: C_10  and  O_11 
REMARK    6  A    between atoms: C_10  and  C_12 
REMARK    7  A    between atoms: C_12  and  C_13 
REMARK    8  A    between atoms: C_13  and  C_14 
REMARK    9  A    between atoms: C_13  and  N_21 
REMARK   10  A    between atoms: C_14  and  C_15 
REMARK   11  A    between atoms: N_21  and  P_22 
REMARK   12  A    between atoms: P_22  and  O_23 
REMARK   13  A    between atoms: P_22  and  O_24 
REMARK   14  A    between atoms: O_23  and  C_26 
REMARK   15  A    between atoms: O_24  and  C_27 
REMARK   16  A    between atoms: C_26  and  C_33 
REMARK   17  A    between atoms: C_35  and  C_40 
REMARK   18  A    between atoms: C_36  and  O_39 
REMARK   19  A    between atoms: C_37  and  O_38 
REMARK   20  A    between atoms: C_50  and  N_51 
ROOT
HETATM    1  C   MOL     1     -43.227   1.288  19.681  1.00 -0.25     0.001 A 
HETATM    2  C   MOL     1     -43.844   1.149  18.458  1.00 -0.30     0.007 A 
HETATM    3  C   MOL     1     -44.102  -0.105  17.948  1.00 -0.25    -0.056 A 
HETATM    4  C   MOL     1     -43.737  -1.219  18.672  1.00 -0.33     0.007 A 
HETATM    5  C   MOL     1     -43.119  -1.082  19.895  1.00 -0.34     0.001 A 
HETATM    6  C   MOL     1     -42.864   0.172  20.399  1.00 -0.27     0.000 A 
ENDROOT
BRANCH   3   7
HETATM    7  C   MOL     1     -44.787  -0.257  16.597  1.00 -0.43     0.074 C 
BRANCH   7   8
HETATM    8  C   MOL     1     -44.875  -1.705  16.068  1.00 -0.43     0.216 C 
BRANCH   8   9
HETATM    9  N   MOL     1     -44.199  -1.779  14.724  1.00  0.05    -0.072 N 
HETATM   10  H   MOL     1     -44.638  -1.289  14.097  1.00 -0.64     0.274 HD
HETATM   11  H   MOL     1     -43.346  -1.463  14.760  1.00 -0.76     0.274 HD
HETATM   12  H   MOL     1     -44.142  -2.630  14.412  1.00 -0.15     0.274 HD
ENDBRANCH   8   9
BRANCH   8  13
HETATM   13  C   MOL     1     -46.354  -2.147  15.977  1.00 -0.29     0.150 C 
BRANCH  13  14
HETATM   14  O   MOL     1     -46.578  -2.869  14.753  1.00  0.06    -0.393 OA
HETATM   15  H   MOL     1     -45.747  -2.893  14.187  1.00 -0.27     0.210 HD
ENDBRANCH  13  14
BRANCH  13  16
HETATM   16  C   MOL     1     -47.306  -0.932  16.031  1.00 -0.14     0.054 C 
BRANCH  16  17
HETATM   17  C   MOL     1     -48.097  -0.885  17.357  1.00 -0.12     0.073 C 
BRANCH  17  18
HETATM   18  C   MOL     1     -48.106   0.562  17.900  1.00 -0.13     0.058 C 
BRANCH  18  19
HETATM   19  C   MOL     1     -47.461   0.755  19.264  1.00 -0.16    -0.057 A 
HETATM   20  C   MOL     1     -47.070  -0.337  20.009  1.00 -0.21     0.007 A 
HETATM   21  C   MOL     1     -46.489  -0.163  21.245  1.00 -0.25     0.001 A 
HETATM   22  C   MOL     1     -46.298   1.104  21.743  1.00 -0.37     0.000 A 
HETATM   23  C   MOL     1     -46.687   2.199  21.004  1.00 -0.40     0.001 A 
HETATM   24  C   MOL     1     -47.266   2.023  19.768  1.00 -0.21     0.007 A 
ENDBRANCH  18  19
ENDBRANCH  17  18
BRANCH  17  25
HETATM   25  N   MOL     1     -49.478  -1.329  17.125  1.00  0.15    -0.221 NA
HETATM   26  H   MOL     1     -49.583  -1.671  16.161  1.00  0.32     0.134 HD
BRANCH  25  27
HETATM   27  P   MOL     1     -49.968  -2.358  18.112  1.00  0.09     0.413 P 
HETATM   28  O   MOL     1     -48.843  -2.876  18.970  1.00  0.07    -0.239 OA
BRANCH  27  29
HETATM   29  O   MOL     1     -50.702  -3.580  17.367  1.00  0.12    -0.299 OA
BRANCH  29  30
HETATM   30  C   MOL     1     -52.129  -3.694  17.465  1.00 -0.20     0.214 C 
BRANCH  30  31
HETATM   31  C   MOL     1     -52.496  -4.953  18.268  1.00 -0.04     0.180 C 
HETATM   32  O   MOL     1     -51.467  -5.289  19.215  1.00  0.26    -0.347 OA
HETATM   33  C   MOL     1     -51.378  -6.717  19.370  1.00 -0.04     0.222 C 
HETATM   34  C   MOL     1     -52.419  -7.320  18.396  1.00 -0.10     0.205 C 
HETATM   35  C   MOL     1     -51.727  -7.054  20.756  1.00 -0.21     0.107 C 
HETATM   36  C   MOL     1     -52.678  -6.196  17.385  1.00 -0.06     0.182 C 
HETATM   37  N   MOL     1     -51.998  -7.314  21.829  1.00  0.07    -0.193 NA
BRANCH  33  38
HETATM   38  C   MOL     1     -49.921  -7.061  19.084  1.00 -0.19     0.088 A 
HETATM   39  N   MOL     1     -49.427  -8.292  19.360  1.00 -0.03    -0.229 N 
HETATM   40  C   MOL     1     -48.120  -8.245  18.988  1.00 -0.22     0.104 A 
HETATM   41  N   MOL     1     -49.969  -9.429  19.889  1.00  0.23    -0.160 NA
HETATM   42  C   MOL     1     -47.794  -7.023  18.495  1.00 -0.37     0.038 A 
HETATM   43  C   MOL     1     -47.342  -9.418  19.166  1.00 -0.44     0.151 A 
HETATM   44  C   MOL     1     -48.964  -6.262  18.562  1.00 -0.17     0.034 A 
HETATM   45  N   MOL     1     -47.858 -10.541  19.684  1.00 -0.19    -0.221 NA
HETATM   46  C   MOL     1     -49.186 -10.473  20.026  1.00 -0.33     0.258 A 
BRANCH  43  47
HETATM   47  N   MOL     1     -46.014  -9.446  18.809  1.00 -0.25    -0.382 N 
HETATM   48  H   MOL     1     -45.394  -9.409  19.432  1.00 -0.27     0.157 HD
HETATM   49  H   MOL     1     -45.781  -9.501  17.961  1.00 -0.19     0.157 HD
ENDBRANCH  43  47
ENDBRANCH  33  38
BRANCH  34  50
HETATM   50  O   MOL     1     -51.971  -8.524  17.754  1.00  0.41    -0.388 OA
HETATM   51  H   MOL     1     -52.723  -9.183  17.646  1.00 -0.42     0.210 HD
ENDBRANCH  34  50
BRANCH  36  52
HETATM   52  O   MOL     1     -51.699  -6.255  16.336  1.00  0.07    -0.390 OA
HETATM   53  H   MOL     1     -50.960  -5.589  16.488  1.00 -0.09     0.210 HD
ENDBRANCH  36  52
ENDBRANCH  30  31
ENDBRANCH  29  30
ENDBRANCH  27  29
BRANCH  27  54
HETATM   54  O   MOL     1     -51.139  -1.737  19.030  1.00  0.13    -0.260 OA
BRANCH  54  55
HETATM   55  C   MOL     1     -50.913  -0.710  19.904  1.00 -0.29     0.080 A 
HETATM   56  C   MOL     1     -50.389  -0.929  21.165  1.00 -0.28     0.037 A 
HETATM   57  C   MOL     1     -50.169   0.126  22.020  1.00 -0.40     0.003 A 
HETATM   58  C   MOL     1     -50.470   1.409  21.623  1.00 -0.35     0.000 A 
HETATM   59  C   MOL     1     -50.993   1.635  20.370  1.00 -0.47     0.003 A 
HETATM   60  C   MOL     1     -51.215   0.581  19.517  1.00 -0.37     0.037 A 
ENDBRANCH  54  55
ENDBRANCH  27  54
ENDBRANCH  25  27
ENDBRANCH  17  25
ENDBRANCH  16  17
ENDBRANCH  13  16
ENDBRANCH   8  13
ENDBRANCH   7   8
ENDBRANCH   3   7
TORSDOF 20
ENDMDL
MODEL 4
REMARK VINA RESULT:      -5.5      4.576      7.432
REMARK  20 active torsions:
REMARK  status: ('A' for Active; 'I' for Inactive)
REMARK    1  A    between atoms: C_3  and  C_7 
REMARK    2  A    between atoms: C_7  and  C_8 
REMARK    3  A    between atoms: C_8  and  N_9 
REMARK    4  A    between atoms: C_8  and  C_10 
REMARK    5  A    between atoms: C_10  and  O_11 
REMARK    6  A    between atoms: C_10  and  C_12 
REMARK    7  A    between atoms: C_12  and  C_13 
REMARK    8  A    between atoms: C_13  and  C_14 
REMARK    9  A    between atoms: C_13  and  N_21 
REMARK   10  A    between atoms: C_14  and  C_15 
REMARK   11  A    between atoms: N_21  and  P_22 
REMARK   12  A    between atoms: P_22  and  O_23 
REMARK   13  A    between atoms: P_22  and  O_24 
REMARK   14  A    between atoms: O_23  and  C_26 
REMARK   15  A    between atoms: O_24  and  C_27 
REMARK   16  A    between atoms: C_26  and  C_33 
REMARK   17  A    between atoms: C_35  and  C_40 
REMARK   18  A    between atoms: C_36  and  O_39 
REMARK   19  A    between atoms: C_37  and  O_38 
REMARK   20  A    between atoms: C_50  and  N_51 
ROOT
HETATM    1  C   MOL     1     -43.353  -1.271  19.962  1.00 -0.25     0.001 A 
HETATM    2  C   MOL     1     -43.943  -1.373  18.722  1.00 -0.30     0.007 A 
HETATM    3  C   MOL     1     -44.181  -0.244  17.970  1.00 -0.25    -0.056 A 
HETATM    4  C   MOL     1     -43.823   0.991  18.468  1.00 -0.33     0.007 A 
HETATM    5  C   MOL     1     -43.234   1.095  19.708  1.00 -0.34     0.001 A 
HETATM    6  C   MOL     1     -42.999  -0.037  20.454  1.00 -0.27     0.000 A 
ENDROOT
BRANCH   3   7
HETATM    7  C   MOL     1     -44.832  -0.359  16.598  1.00 -0.43     0.074 C 
BRANCH   7   8
HETATM    8  C   MOL     1     -44.945  -1.797  16.047  1.00 -0.43     0.216 C 
BRANCH   8   9
HETATM    9  N   MOL     1     -44.271  -1.862  14.702  1.00  0.05    -0.072 N 
HETATM   10  H   MOL     1     -44.689  -1.336  14.089  1.00 -0.64     0.274 HD
HETATM   11  H   MOL     1     -43.406  -1.582  14.746  1.00 -0.76     0.274 HD
HETATM   12  H   MOL     1     -44.249  -2.705  14.366  1.00 -0.15     0.274 HD
ENDBRANCH   8   9
BRANCH   8  13
HETATM   13  C   MOL     1     -46.431  -2.211  15.951  1.00 -0.29     0.150 C 
BRANCH  13  14
HETATM   14  O   MOL     1     -46.666  -2.920  14.721  1.00  0.06    -0.393 OA
HETATM   15  H   MOL     1     -46.448  -3.897  14.816  1.00 -0.27     0.210 HD
ENDBRANCH  13  14
BRANCH  13  16
HETATM   16  C   MOL     1     -47.361  -0.980  16.013  1.00 -0.14     0.054 C 
BRANCH  16  17
HETATM   17  C   MOL     1     -48.121  -0.906  17.356  1.00 -0.12     0.073 C 
BRANCH  17  18
HETATM   18  C   MOL     1     -48.170   0.561  17.839  1.00 -0.13     0.058 C 
BRANCH  18  19
HETATM   19  C   MOL     1     -47.526   0.829  19.191  1.00 -0.16    -0.057 A 
HETATM   20  C   MOL     1     -47.173  -0.219  20.012  1.00 -0.21     0.007 A 
HETATM   21  C   MOL     1     -46.593   0.022  21.238  1.00 -0.25     0.001 A 
HETATM   22  C   MOL     1     -46.366   1.315  21.648  1.00 -0.37     0.000 A 
HETATM   23  C   MOL     1     -46.717   2.367  20.832  1.00 -0.40     0.001 A 
HETATM   24  C   MOL     1     -47.296   2.123  19.606  1.00 -0.21     0.007 A 
ENDBRANCH  18  19
ENDBRANCH  17  18
BRANCH  17  25
HETATM   25  N   MOL     1     -49.490  -1.408  17.178  1.00  0.15    -0.221 NA
HETATM   26  H   MOL     1     -49.601  -1.810  16.238  1.00  0.32     0.134 HD
BRANCH  25  27
HETATM   27  P   MOL     1     -49.926  -2.394  18.233  1.00  0.09     0.413 P 
HETATM   28  O   MOL     1     -48.775  -2.796  19.119  1.00  0.07    -0.239 OA
BRANCH  27  29
HETATM   29  O   MOL     1     -50.597  -3.698  17.574  1.00  0.12    -0.299 OA
BRANCH  29  30
HETATM   30  C   MOL     1     -51.042  -4.758  18.433  1.00 -0.20     0.214 C 
BRANCH  30  31
HETATM   31  C   MOL     1     -50.693  -6.117  17.804  1.00 -0.04     0.180 C 
HETATM   32  O   MOL     1     -50.886  -7.192  18.739  1.00  0.26    -0.347 OA
HETATM   33  C   MOL     1     -49.913  -8.230  18.513  1.00 -0.04     0.222 C 
HETATM   34  C   MOL     1     -49.011  -7.729  17.361  1.00 -0.10     0.205 C 
HETATM   35  C   MOL     1     -50.624  -9.449  18.106  1.00 -0.21     0.107 C 
HETATM   36  C   MOL     1     -49.230  -6.210  17.349  1.00 -0.06     0.182 C 
HETATM   37  N   MOL     1     -51.175 -10.392  17.791  1.00  0.07    -0.193 NA
BRANCH  33  38
HETATM   38  C   MOL     1     -49.225  -8.434  19.859  1.00 -0.19     0.088 A 
HETATM   39  N   MOL     1     -48.365  -9.462  20.055  1.00 -0.03    -0.229 N 
HETATM   40  C   MOL     1     -47.951  -9.340  21.344  1.00 -0.22     0.104 A 
HETATM   41  N   MOL     1     -47.911 -10.475  19.260  1.00  0.23    -0.160 NA
HETATM   42  C   MOL     1     -48.531  -8.271  21.948  1.00 -0.37     0.038 A 
HETATM   43  C   MOL     1     -47.027 -10.300  21.832  1.00 -0.44     0.151 A 
HETATM   44  C   MOL     1     -49.355  -7.691  20.980  1.00 -0.17     0.034 A 
HETATM   45  N   MOL     1     -46.571 -11.300  21.065  1.00 -0.19    -0.221 NA
HETATM   46  C   MOL     1     -47.060 -11.326  19.783  1.00 -0.33     0.258 A 
BRANCH  43  47
HETATM   47  N   MOL     1     -46.561 -10.239  23.124  1.00 -0.25    -0.382 N 
HETATM   48  H   MOL     1     -46.676 -10.925  23.663  1.00 -0.27     0.157 HD
HETATM   49  H   MOL     1     -46.147  -9.518  23.415  1.00 -0.19     0.157 HD
ENDBRANCH  43  47
ENDBRANCH  33  38
BRANCH  34  50
HETATM   50  O   MOL     1     -47.625  -8.067  17.531  1.00  0.41    -0.388 OA
HETATM   51  H   MOL     1     -47.412  -8.265  18.494  1.00 -0.42     0.210 HD
ENDBRANCH  34  50
BRANCH  36  52
HETATM   52  O   MOL     1     -48.338  -5.587  18.286  1.00  0.07    -0.390 OA
HETATM   53  H   MOL     1     -48.683  -5.668  19.228  1.00 -0.09     0.210 HD
ENDBRANCH  36  52
ENDBRANCH  30  31
ENDBRANCH  29  30
ENDBRANCH  27  29
BRANCH  27  54
HETATM   54  O   MOL     1     -51.126  -1.773  19.114  1.00  0.13    -0.260 OA
BRANCH  54  55
HETATM   55  C   MOL     1     -50.974  -0.635  19.855  1.00 -0.29     0.080 A 
HETATM   56  C   MOL     1     -50.483  -0.667  21.147  1.00 -0.28     0.037 A 
HETATM   57  C   MOL     1     -50.337   0.497  21.866  1.00 -0.40     0.003 A 
HETATM   58  C   MOL     1     -50.680   1.704  21.299  1.00 -0.35     0.000 A 
HETATM   59  C   MOL     1     -51.170   1.744  20.014  1.00 -0.47     0.003 A 
HETATM   60  C   MOL     1     -51.318   0.581  19.296  1.00 -0.37     0.037 A 
ENDBRANCH  54  55
ENDBRANCH  27  54
ENDBRANCH  25  27
ENDBRANCH  17  25
ENDBRANCH  16  17
ENDBRANCH  13  16
ENDBRANCH   8  13
ENDBRANCH   7   8
ENDBRANCH   3   7
TORSDOF 20
ENDMDL
MODEL 5
REMARK VINA RESULT:      -5.4      2.178      2.973
REMARK  20 active torsions:
REMARK  status: ('A' for Active; 'I' for Inactive)
REMARK    1  A    between atoms: C_3  and  C_7 
REMARK    2  A    between atoms: C_7  and  C_8 
REMARK    3  A    between atoms: C_8  and  N_9 
REMARK    4  A    between atoms: C_8  and  C_10 
REMARK    5  A    between atoms: C_10  and  O_11 
REMARK    6  A    between atoms: C_10  and  C_12 
REMARK    7  A    between atoms: C_12  and  C_13 
REMARK    8  A    between atoms: C_13  and  C_14 
REMARK    9  A    between atoms: C_13  and  N_21 
REMARK   10  A    between atoms: C_14  and  C_15 
REMARK   11  A    between atoms: N_21  and  P_22 
REMARK   12  A    between atoms: P_22  and  O_23 
REMARK   13  A    between atoms: P_22  and  O_24 
REMARK   14  A    between atoms: O_23  and  C_26 
REMARK   15  A    between atoms: O_24  and  C_27 
REMARK   16  A    between atoms: C_26  and  C_33 
REMARK   17  A    between atoms: C_35  and  C_40 
REMARK   18  A    between atoms: C_36  and  O_39 
REMARK   19  A    between atoms: C_37  and  O_38 
REMARK   20  A    between atoms: C_50  and  N_51 
ROOT
HETATM    1  C   MOL     1     -43.337   0.832  18.980  1.00 -0.25     0.001 A 
HETATM    2  C   MOL     1     -44.132   0.664  17.869  1.00 -0.30     0.007 A 
HETATM    3  C   MOL     1     -44.447  -0.602  17.423  1.00 -0.25    -0.056 A 
HETATM    4  C   MOL     1     -43.959  -1.699  18.100  1.00 -0.33     0.007 A 
HETATM    5  C   MOL     1     -43.163  -1.533  19.210  1.00 -0.34     0.001 A 
HETATM    6  C   MOL     1     -42.852  -0.267  19.650  1.00 -0.27     0.000 A 
ENDROOT
BRANCH   3   7
HETATM    7  C   MOL     1     -45.329  -0.786  16.196  1.00 -0.43     0.074 C 
BRANCH   7   8
HETATM    8  C   MOL     1     -45.953  -2.191  16.044  1.00 -0.43     0.216 C 
BRANCH   8   9
HETATM    9  N   MOL     1     -45.677  -2.703  14.656  1.00  0.05    -0.072 N 
HETATM   10  H   MOL     1     -46.142  -3.464  14.478  1.00 -0.64     0.274 HD
HETATM   11  H   MOL     1     -45.912  -2.095  14.020  1.00 -0.76     0.274 HD
HETATM   12  H   MOL     1     -44.797  -2.885  14.522  1.00 -0.15     0.274 HD
ENDBRANCH   8   9
BRANCH   8  13
HETATM   13  C   MOL     1     -47.472  -2.128  16.328  1.00 -0.29     0.150 C 
BRANCH  13  14
HETATM   14  O   MOL     1     -48.190  -2.882  15.335  1.00  0.06    -0.393 OA
HETATM   15  H   MOL     1     -47.727  -2.842  14.443  1.00 -0.27     0.210 HD
ENDBRANCH  13  14
BRANCH  13  16
HETATM   16  C   MOL     1     -47.983  -0.671  16.327  1.00 -0.14     0.054 C 
BRANCH  16  17
HETATM   17  C   MOL     1     -48.652  -0.299  17.669  1.00 -0.12     0.073 C 
BRANCH  17  18
HETATM   18  C   MOL     1     -48.009   0.992  18.224  1.00 -0.13     0.058 C 
BRANCH  18  19
HETATM   19  C   MOL     1     -47.220   0.830  19.514  1.00 -0.16    -0.057 A 
HETATM   20  C   MOL     1     -47.006  -0.423  20.045  1.00 -0.21     0.007 A 
HETATM   21  C   MOL     1     -46.295  -0.571  21.215  1.00 -0.25     0.001 A 
HETATM   22  C   MOL     1     -45.794   0.537  21.859  1.00 -0.37     0.000 A 
HETATM   23  C   MOL     1     -46.004   1.791  21.333  1.00 -0.40     0.001 A 
HETATM   24  C   MOL     1     -46.715   1.936  20.163  1.00 -0.21     0.007 A 
ENDBRANCH  18  19
ENDBRANCH  17  18
BRANCH  17  25
HETATM   25  N   MOL     1     -50.090  -0.080  17.461  1.00  0.15    -0.221 NA
HETATM   26  H   MOL     1     -50.311  -0.109  16.457  1.00  0.32     0.134 HD
BRANCH  25  27
HETATM   27  P   MOL     1     -50.974  -1.029  18.229  1.00  0.09     0.413 P 
HETATM   28  O   MOL     1     -50.187  -2.188  18.783  1.00  0.07    -0.239 OA
BRANCH  27  29
HETATM   29  O   MOL     1     -52.185  -1.568  17.318  1.00  0.12    -0.299 OA
BRANCH  29  30
HETATM   30  C   MOL     1     -53.464  -1.792  17.928  1.00 -0.20     0.214 C 
BRANCH  30  31
HETATM   31  C   MOL     1     -54.573  -1.208  17.038  1.00 -0.04     0.180 C 
HETATM   32  O   MOL     1     -54.107  -0.987  15.696  1.00  0.26    -0.347 OA
HETATM   33  C   MOL     1     -54.746   0.172  15.129  1.00 -0.04     0.222 C 
HETATM   34  C   MOL     1     -55.660   0.743  16.239  1.00 -0.10     0.205 C 
HETATM   35  C   MOL     1     -55.554  -0.261  13.981  1.00 -0.21     0.107 C 
HETATM   36  C   MOL     1     -55.089   0.150  17.534  1.00 -0.06     0.182 C 
HETATM   37  N   MOL     1     -56.180  -0.597  13.094  1.00  0.07    -0.193 NA
BRANCH  33  38
HETATM   38  C   MOL     1     -53.606   1.076  14.673  1.00 -0.19     0.088 A 
HETATM   39  N   MOL     1     -53.845   2.170  13.912  1.00 -0.03    -0.229 N 
HETATM   40  C   MOL     1     -52.625   2.727  13.694  1.00 -0.22     0.104 A 
HETATM   41  N   MOL     1     -54.978   2.728  13.392  1.00  0.23    -0.160 NA
HETATM   42  C   MOL     1     -51.642   2.009  14.295  1.00 -0.37     0.038 A 
HETATM   43  C   MOL     1     -52.571   3.910  12.912  1.00 -0.44     0.151 A 
HETATM   44  C   MOL     1     -52.286   0.941  14.925  1.00 -0.17     0.034 A 
HETATM   45  N   MOL     1     -53.673   4.470  12.395  1.00 -0.19    -0.221 NA
HETATM   46  C   MOL     1     -54.848   3.821  12.677  1.00 -0.33     0.258 A 
BRANCH  43  47
HETATM   47  N   MOL     1     -51.372   4.532  12.653  1.00 -0.25    -0.382 N 
HETATM   48  H   MOL     1     -50.659   4.048  12.474  1.00 -0.27     0.157 HD
HETATM   49  H   MOL     1     -51.313   5.410  12.664  1.00 -0.19     0.157 HD
ENDBRANCH  43  47
ENDBRANCH  33  38
BRANCH  34  50
HETATM   50  O   MOL     1     -55.687   2.179  16.276  1.00  0.41    -0.388 OA
HETATM   51  H   MOL     1     -56.375   2.515  16.927  1.00 -0.42     0.210 HD
ENDBRANCH  34  50
BRANCH  36  52
HETATM   52  O   MOL     1     -54.023   0.982  18.017  1.00  0.07    -0.390 OA
HETATM   53  H   MOL     1     -53.220   0.434  18.277  1.00 -0.09     0.210 HD
ENDBRANCH  36  52
ENDBRANCH  30  31
ENDBRANCH  29  30
ENDBRANCH  27  29
BRANCH  27  54
HETATM   54  O   MOL     1     -51.735  -0.244  19.416  1.00  0.13    -0.260 OA
BRANCH  54  55
HETATM   55  C   MOL     1     -51.068   0.540  20.315  1.00 -0.29     0.080 A 
HETATM   56  C   MOL     1     -51.034   1.918  20.197  1.00 -0.28     0.037 A 
HETATM   57  C   MOL     1     -50.358   2.679  21.121  1.00 -0.40     0.003 A 
HETATM   58  C   MOL     1     -49.711   2.072  22.173  1.00 -0.35     0.000 A 
HETATM   59  C   MOL     1     -49.739   0.702  22.298  1.00 -0.47     0.003 A 
HETATM   60  C   MOL     1     -50.412  -0.060  21.373  1.00 -0.37     0.037 A 
ENDBRANCH  54  55
ENDBRANCH  27  54
ENDBRANCH  25  27
ENDBRANCH  17  25
ENDBRANCH  16  17
ENDBRANCH  13  16
ENDBRANCH   8  13
ENDBRANCH   7   8
ENDBRANCH   3   7
TORSDOF 20
ENDMDL
MODEL 6
REMARK VINA RESULT:      -5.4      4.539      8.304
REMARK  20 active torsions:
REMARK  status: ('A' for Active; 'I' for Inactive)
REMARK    1  A    between atoms: C_3  and  C_7 
REMARK    2  A    between atoms: C_7  and  C_8 
REMARK    3  A    between atoms: C_8  and  N_9 
REMARK    4  A    between atoms: C_8  and  C_10 
REMARK    5  A    between atoms: C_10  and  O_11 
REMARK    6  A    between atoms: C_10  and  C_12 
REMARK    7  A    between atoms: C_12  and  C_13 
REMARK    8  A    between atoms: C_13  and  C_14 
REMARK    9  A    between atoms: C_13  and  N_21 
REMARK   10  A    between atoms: C_14  and  C_15 
REMARK   11  A    between atoms: N_21  and  P_22 
REMARK   12  A    between atoms: P_22  and  O_23 
REMARK   13  A    between atoms: P_22  and  O_24 
REMARK   14  A    between atoms: O_23  and  C_26 
REMARK   15  A    between atoms: O_24  and  C_27 
REMARK   16  A    between atoms: C_26  and  C_33 
REMARK   17  A    between atoms: C_35  and  C_40 
REMARK   18  A    between atoms: C_36  and  O_39 
REMARK   19  A    between atoms: C_37  and  O_38 
REMARK   20  A    between atoms: C_50  and  N_51 
ROOT
HETATM    1  C   MOL     1     -43.001  -1.178  19.496  1.00 -0.25     0.001 A 
HETATM    2  C   MOL     1     -43.813  -1.400  18.407  1.00 -0.30     0.007 A 
HETATM    3  C   MOL     1     -44.357  -0.339  17.716  1.00 -0.25    -0.056 A 
HETATM    4  C   MOL     1     -44.081   0.948  18.125  1.00 -0.33     0.007 A 
HETATM    5  C   MOL     1     -43.270   1.172  19.215  1.00 -0.34     0.001 A 
HETATM    6  C   MOL     1     -42.731   0.108  19.900  1.00 -0.27     0.000 A 
ENDROOT
BRANCH   3   7
HETATM    7  C   MOL     1     -45.252  -0.587  16.510  1.00 -0.43     0.074 C 
BRANCH   7   8
HETATM    8  C   MOL     1     -45.568  -2.072  16.223  1.00 -0.43     0.216 C 
BRANCH   8   9
HETATM    9  N   MOL     1     -45.403  -2.333  14.750  1.00  0.05    -0.072 N 
HETATM   10  H   MOL     1     -45.937  -1.793  14.249  1.00 -0.64     0.274 HD
HETATM   11  H   MOL     1     -44.547  -2.188  14.477  1.00 -0.76     0.274 HD
HETATM   12  H   MOL     1     -45.600  -3.191  14.527  1.00 -0.15     0.274 HD
ENDBRANCH   8   9
BRANCH   8  13
HETATM   13  C   MOL     1     -47.001  -2.408  16.697  1.00 -0.29     0.150 C 
BRANCH  13  14
HETATM   14  O   MOL     1     -47.531  -3.500  15.924  1.00  0.06    -0.393 OA
HETATM   15  H   MOL     1     -46.801  -3.986  15.432  1.00 -0.27     0.210 HD
ENDBRANCH  13  14
BRANCH  13  16
HETATM   16  C   MOL     1     -47.938  -1.188  16.562  1.00 -0.14     0.054 C 
BRANCH  16  17
HETATM   17  C   MOL     1     -48.731  -0.931  17.862  1.00 -0.12     0.073 C 
BRANCH  17  18
HETATM   18  C   MOL     1     -48.463   0.510  18.351  1.00 -0.13     0.058 C 
BRANCH  18  19
HETATM   19  C   MOL     1     -47.541   0.634  19.555  1.00 -0.16    -0.057 A 
HETATM   20  C   MOL     1     -47.171   1.877  20.021  1.00 -0.21     0.007 A 
HETATM   21  C   MOL     1     -46.333   1.990  21.109  1.00 -0.25     0.001 A 
HETATM   22  C   MOL     1     -45.861   0.860  21.733  1.00 -0.37     0.000 A 
HETATM   23  C   MOL     1     -46.228  -0.384  21.271  1.00 -0.40     0.001 A 
HETATM   24  C   MOL     1     -47.066  -0.495  20.185  1.00 -0.21     0.007 A 
ENDBRANCH  18  19
ENDBRANCH  17  18
BRANCH  17  25
HETATM   25  N   MOL     1     -50.168  -1.102  17.606  1.00  0.15    -0.221 NA
HETATM   26  H   MOL     1     -50.411  -0.723  16.682  1.00  0.32     0.134 HD
BRANCH  25  27
HETATM   27  P   MOL     1     -50.653  -2.523  17.743  1.00  0.09     0.413 P 
HETATM   28  O   MOL     1     -51.982  -2.585  18.448  1.00  0.07    -0.239 OA
BRANCH  27  29
HETATM   29  O   MOL     1     -49.576  -3.436  18.513  1.00  0.12    -0.299 OA
BRANCH  29  30
HETATM   30  C   MOL     1     -50.032  -4.332  19.537  1.00 -0.20     0.214 C 
BRANCH  30  31
HETATM   31  C   MOL     1     -50.179  -5.749  18.961  1.00 -0.04     0.180 C 
HETATM   32  O   MOL     1     -49.956  -6.751  19.968  1.00  0.26    -0.347 OA
HETATM   33  C   MOL     1     -49.335  -7.913  19.388  1.00 -0.04     0.222 C 
HETATM   34  C   MOL     1     -49.115  -7.580  17.893  1.00 -0.10     0.205 C 
HETATM   35  C   MOL     1     -50.258  -9.047  19.525  1.00 -0.21     0.107 C 
HETATM   36  C   MOL     1     -49.174  -6.048  17.839  1.00 -0.06     0.182 C 
HETATM   37  N   MOL     1     -50.973  -9.924  19.631  1.00  0.07    -0.193 NA
BRANCH  33  38
HETATM   38  C   MOL     1     -48.072  -8.145  20.212  1.00 -0.19     0.088 A 
HETATM   39  N   MOL     1     -47.341  -9.276  20.064  1.00 -0.03    -0.229 N 
HETATM   40  C   MOL     1     -46.309  -9.151  20.939  1.00 -0.22     0.104 A 
HETATM   41  N   MOL     1     -47.466 -10.383  19.274  1.00  0.23    -0.160 NA
HETATM   42  C   MOL     1     -46.383  -7.980  21.623  1.00 -0.37     0.038 A 
HETATM   43  C   MOL     1     -45.365 -10.208  21.000  1.00 -0.44     0.151 A 
HETATM   44  C   MOL     1     -47.529  -7.336  21.147  1.00 -0.17     0.034 A 
HETATM   45  N   MOL     1     -45.473 -11.301  20.232  1.00 -0.19    -0.221 NA
HETATM   46  C   MOL     1     -46.555 -11.321  19.389  1.00 -0.33     0.258 A 
BRANCH  43  47
HETATM   47  N   MOL     1     -44.293 -10.150  21.859  1.00 -0.25    -0.382 N 
HETATM   48  H   MOL     1     -43.982  -9.368  22.118  1.00 -0.27     0.157 HD
HETATM   49  H   MOL     1     -43.915 -10.889  22.153  1.00 -0.19     0.157 HD
ENDBRANCH  43  47
ENDBRANCH  33  38
BRANCH  34  50
HETATM   50  O   MOL     1     -47.876  -8.086  17.371  1.00  0.41    -0.388 OA
HETATM   51  H   MOL     1     -47.660  -8.991  17.753  1.00 -0.42     0.210 HD
ENDBRANCH  34  50
BRANCH  36  52
HETATM   52  O   MOL     1     -47.876  -5.505  18.125  1.00  0.07    -0.390 OA
HETATM   53  H   MOL     1     -47.146  -6.144  17.860  1.00 -0.09     0.210 HD
ENDBRANCH  36  52
ENDBRANCH  30  31
ENDBRANCH  29  30
ENDBRANCH  27  29
BRANCH  27  54
HETATM   54  O   MOL     1     -50.749  -3.221  16.292  1.00  0.13    -0.260 OA
BRANCH  54  55
HETATM   55  C   MOL     1     -51.929  -3.691  15.786  1.00 -0.29     0.080 A 
HETATM   56  C   MOL     1     -52.294  -5.020  15.904  1.00 -0.28     0.037 A 
HETATM   57  C   MOL     1     -53.490  -5.461  15.387  1.00 -0.40     0.003 A 
HETATM   58  C   MOL     1     -54.332  -4.579  14.750  1.00 -0.35     0.000 A 
HETATM   59  C   MOL     1     -53.976  -3.255  14.628  1.00 -0.47     0.003 A 
HETATM   60  C   MOL     1     -52.780  -2.815  15.142  1.00 -0.37     0.037 A 
ENDBRANCH  54  55
ENDBRANCH  27  54
ENDBRANCH  25  27
ENDBRANCH  17  25
ENDBRANCH  16  17
ENDBRANCH  13  16
ENDBRANCH   8  13
ENDBRANCH   7   8
ENDBRANCH   3   7
TORSDOF 20
ENDMDL
MODEL 7
REMARK VINA RESULT:      -5.3      1.997      3.669
REMARK  20 active torsions:
REMARK  status: ('A' for Active; 'I' for Inactive)
REMARK    1  A    between atoms: C_3  and  C_7 
REMARK    2  A    between atoms: C_7  and  C_8 
REMARK    3  A    between atoms: C_8  and  N_9 
REMARK    4  A    between atoms: C_8  and  C_10 
REMARK    5  A    between atoms: C_10  and  O_11 
REMARK    6  A    between atoms: C_10  and  C_12 
REMARK    7  A    between atoms: C_12  and  C_13 
REMARK    8  A    between atoms: C_13  and  C_14 
REMARK    9  A    between atoms: C_13  and  N_21 
REMARK   10  A    between atoms: C_14  and  C_15 
REMARK   11  A    between atoms: N_21  and  P_22 
REMARK   12  A    between atoms: P_22  and  O_23 
REMARK   13  A    between atoms: P_22  and  O_24 
REMARK   14  A    between atoms: O_23  and  C_26 
REMARK   15  A    between atoms: O_24  and  C_27 
REMARK   16  A    between atoms: C_26  and  C_33 
REMARK   17  A    between atoms: C_35  and  C_40 
REMARK   18  A    between atoms: C_36  and  O_39 
REMARK   19  A    between atoms: C_37  and  O_38 
REMARK   20  A    between atoms: C_50  and  N_51 
ROOT
HETATM    1  C   MOL     1     -41.698   3.105  19.752  1.00 -0.25     0.001 A 
HETATM    2  C   MOL     1     -42.503   2.417  18.873  1.00 -0.30     0.007 A 
HETATM    3  C   MOL     1     -42.795   1.088  19.091  1.00 -0.25    -0.056 A 
HETATM    4  C   MOL     1     -42.274   0.453  20.199  1.00 -0.33     0.007 A 
HETATM    5  C   MOL     1     -41.468   1.139  21.078  1.00 -0.34     0.001 A 
HETATM    6  C   MOL     1     -41.180   2.466  20.854  1.00 -0.27     0.000 A 
ENDROOT
BRANCH   3   7
HETATM    7  C   MOL     1     -43.688   0.329  18.120  1.00 -0.43     0.074 C 
BRANCH   7   8
HETATM    8  C   MOL     1     -43.976  -1.139  18.507  1.00 -0.43     0.216 C 
BRANCH   8   9
HETATM    9  N   MOL     1     -43.377  -2.047  17.466  1.00  0.05    -0.072 N 
HETATM   10  H   MOL     1     -43.146  -2.855  17.815  1.00 -0.64     0.274 HD
HETATM   11  H   MOL     1     -43.961  -2.210  16.787  1.00 -0.76     0.274 HD
HETATM   12  H   MOL     1     -42.634  -1.693  17.084  1.00 -0.15     0.274 HD
ENDBRANCH   8   9
BRANCH   8  13
HETATM   13  C   MOL     1     -45.501  -1.362  18.637  1.00 -0.29     0.150 C 
BRANCH  13  14
HETATM   14  O   MOL     1     -45.910  -2.462  17.805  1.00  0.06    -0.393 OA
HETATM   15  H   MOL     1     -45.960  -3.318  18.331  1.00 -0.27     0.210 HD
ENDBRANCH  13  14
BRANCH  13  16
HETATM   16  C   MOL     1     -46.289  -0.098  18.231  1.00 -0.14     0.054 C 
BRANCH  16  17
HETATM   17  C   MOL     1     -47.048   0.511  19.431  1.00 -0.12     0.073 C 
BRANCH  17  18
HETATM   18  C   MOL     1     -46.362   1.830  19.857  1.00 -0.13     0.058 C 
BRANCH  18  19
HETATM   19  C   MOL     1     -45.610   1.782  21.178  1.00 -0.16    -0.057 A 
HETATM   20  C   MOL     1     -44.971   2.906  21.655  1.00 -0.21     0.007 A 
HETATM   21  C   MOL     1     -44.286   2.863  22.849  1.00 -0.25     0.001 A 
HETATM   22  C   MOL     1     -44.236   1.693  23.571  1.00 -0.37     0.000 A 
HETATM   23  C   MOL     1     -44.872   0.567  23.099  1.00 -0.40     0.001 A 
HETATM   24  C   MOL     1     -45.557   0.613  21.905  1.00 -0.21     0.007 A 
ENDBRANCH  18  19
ENDBRANCH  17  18
BRANCH  17  25
HETATM   25  N   MOL     1     -48.440   0.785  19.049  1.00  0.15    -0.221 NA
HETATM   26  H   MOL     1     -48.582   0.572  18.053  1.00  0.32     0.134 HD
BRANCH  25  27
HETATM   27  P   MOL     1     -49.462   0.071  19.897  1.00  0.09     0.413 P 
HETATM   28  O   MOL     1     -48.829  -1.021  20.719  1.00  0.07    -0.239 OA
BRANCH  27  29
HETATM   29  O   MOL     1     -50.650  -0.533  18.998  1.00  0.12    -0.299 OA
BRANCH  29  30
HETATM   30  C   MOL     1     -51.967   0.024  19.124  1.00 -0.20     0.214 C 
BRANCH  30  31
HETATM   31  C   MOL     1     -52.639   0.086  17.742  1.00 -0.04     0.180 C 
HETATM   32  O   MOL     1     -52.180  -0.976  16.888  1.00  0.26    -0.347 OA
HETATM   33  C   MOL     1     -52.138  -0.532  15.519  1.00 -0.04     0.222 C 
HETATM   34  C   MOL     1     -52.570   0.953  15.536  1.00 -0.10     0.205 C 
HETATM   35  C   MOL     1     -53.098  -1.330  14.745  1.00 -0.21     0.107 C 
HETATM   36  C   MOL     1     -52.344   1.391  16.989  1.00 -0.06     0.182 C 
HETATM   37  N   MOL     1     -53.842  -1.948  14.147  1.00  0.07    -0.193 NA
BRANCH  33  38
HETATM   38  C   MOL     1     -50.713  -0.807  15.052  1.00 -0.19     0.088 A 
HETATM   39  N   MOL     1     -49.972  -1.793  15.613  1.00 -0.03    -0.229 N 
HETATM   40  C   MOL     1     -48.776  -1.752  14.968  1.00 -0.22     0.104 A 
HETATM   41  N   MOL     1     -50.209  -2.703  16.603  1.00  0.23    -0.160 NA
HETATM   42  C   MOL     1     -48.757  -0.771  14.029  1.00 -0.37     0.038 A 
HETATM   43  C   MOL     1     -47.786  -2.692  15.357  1.00 -0.44     0.151 A 
HETATM   44  C   MOL     1     -50.014  -0.163  14.092  1.00 -0.17     0.034 A 
HETATM   45  N   MOL     1     -48.003  -3.591  16.326  1.00 -0.19    -0.221 NA
HETATM   46  C   MOL     1     -49.244  -3.538  16.909  1.00 -0.33     0.258 A 
BRANCH  43  47
HETATM   47  N   MOL     1     -46.555  -2.713  14.746  1.00 -0.25    -0.382 N 
HETATM   48  H   MOL     1     -46.467  -2.402  13.927  1.00 -0.27     0.157 HD
HETATM   49  H   MOL     1     -45.852  -3.034  15.170  1.00 -0.19     0.157 HD
ENDBRANCH  43  47
ENDBRANCH  33  38
BRANCH  34  50
HETATM   50  O   MOL     1     -51.838   1.773  14.611  1.00  0.41    -0.388 OA
HETATM   51  H   MOL     1     -50.849   1.598  14.671  1.00 -0.42     0.210 HD
ENDBRANCH  34  50
BRANCH  36  52
HETATM   52  O   MOL     1     -50.981   1.810  17.160  1.00  0.07    -0.390 OA
HETATM   53  H   MOL     1     -50.356   1.261  16.595  1.00 -0.09     0.210 HD
ENDBRANCH  36  52
ENDBRANCH  30  31
ENDBRANCH  29  30
ENDBRANCH  27  29
BRANCH  27  54
HETATM   54  O   MOL     1     -50.228   1.123  20.850  1.00  0.13    -0.260 OA
BRANCH  54  55
HETATM   55  C   MOL     1     -49.572   2.135  21.494  1.00 -0.29     0.080 A 
HETATM   56  C   MOL     1     -48.974   1.949  22.727  1.00 -0.28     0.037 A 
HETATM   57  C   MOL     1     -48.318   2.987  23.346  1.00 -0.40     0.003 A 
HETATM   58  C   MOL     1     -48.252   4.221  22.739  1.00 -0.35     0.000 A 
HETATM   59  C   MOL     1     -48.845   4.415  21.512  1.00 -0.47     0.003 A 
HETATM   60  C   MOL     1     -49.503   3.378  20.894  1.00 -0.37     0.037 A 
ENDBRANCH  54  55
ENDBRANCH  27  54
ENDBRANCH  25  27
ENDBRANCH  17  25
ENDBRANCH  16  17
ENDBRANCH  13  16
ENDBRANCH   8  13
ENDBRANCH   7   8
ENDBRANCH   3   7
TORSDOF 20
ENDMDL
MODEL 8
REMARK VINA RESULT:      -5.3      2.164      4.506
REMARK  20 active torsions:
REMARK  status: ('A' for Active; 'I' for Inactive)
REMARK    1  A    between atoms: C_3  and  C_7 
REMARK    2  A    between atoms: C_7  and  C_8 
REMARK    3  A    between atoms: C_8  and  N_9 
REMARK    4  A    between atoms: C_8  and  C_10 
REMARK    5  A    between atoms: C_10  and  O_11 
REMARK    6  A    between atoms: C_10  and  C_12 
REMARK    7  A    between atoms: C_12  and  C_13 
REMARK    8  A    between atoms: C_13  and  C_14 
REMARK    9  A    between atoms: C_13  and  N_21 
REMARK   10  A    between atoms: C_14  and  C_15 
REMARK   11  A    between atoms: N_21  and  P_22 
REMARK   12  A    between atoms: P_22  and  O_23 
REMARK   13  A    between atoms: P_22  and  O_24 
REMARK   14  A    between atoms: O_23  and  C_26 
REMARK   15  A    between atoms: O_24  and  C_27 
REMARK   16  A    between atoms: C_26  and  C_33 
REMARK   17  A    between atoms: C_35  and  C_40 
REMARK   18  A    between atoms: C_36  and  O_39 
REMARK   19  A    between atoms: C_37  and  O_38 
REMARK   20  A    between atoms: C_50  and  N_51 
ROOT
HETATM    1  C   MOL     1     -43.010  -1.297  19.676  1.00 -0.25     0.001 A 
HETATM    2  C   MOL     1     -43.715  -1.394  18.497  1.00 -0.30     0.007 A 
HETATM    3  C   MOL     1     -44.089  -0.258  17.814  1.00 -0.25    -0.056 A 
HETATM    4  C   MOL     1     -43.752   0.979  18.321  1.00 -0.33     0.007 A 
HETATM    5  C   MOL     1     -43.048   1.079  19.500  1.00 -0.34     0.001 A 
HETATM    6  C   MOL     1     -42.677  -0.060  20.177  1.00 -0.27     0.000 A 
ENDROOT
BRANCH   3   7
HETATM    7  C   MOL     1     -44.866  -0.367  16.510  1.00 -0.43     0.074 C 
BRANCH   7   8
HETATM    8  C   MOL     1     -45.203  -1.809  16.068  1.00 -0.43     0.216 C 
BRANCH   8   9
HETATM    9  N   MOL     1     -44.540  -2.085  14.746  1.00  0.05    -0.072 N 
HETATM   10  H   MOL     1     -45.076  -2.569  14.193  1.00 -0.64     0.274 HD
HETATM   11  H   MOL     1     -44.333  -1.315  14.306  1.00 -0.76     0.274 HD
HETATM   12  H   MOL     1     -43.761  -2.543  14.837  1.00 -0.15     0.274 HD
ENDBRANCH   8   9
BRANCH   8  13
HETATM   13  C   MOL     1     -46.736  -1.989  15.977  1.00 -0.29     0.150 C 
BRANCH  13  14
HETATM   14  O   MOL     1     -47.070  -2.785  14.827  1.00  0.06    -0.393 OA
HETATM   15  H   MOL     1     -46.246  -3.051  14.315  1.00 -0.27     0.210 HD
ENDBRANCH  13  14
BRANCH  13  16
HETATM   16  C   MOL     1     -47.456  -0.626  15.877  1.00 -0.14     0.054 C 
BRANCH  16  17
HETATM   17  C   MOL     1     -48.495  -0.445  17.006  1.00 -0.12     0.073 C 
BRANCH  17  18
HETATM   18  C   MOL     1     -48.221   0.881  17.750  1.00 -0.13     0.058 C 
BRANCH  18  19
HETATM   19  C   MOL     1     -47.475   0.751  19.070  1.00 -0.16    -0.057 A 
HETATM   20  C   MOL     1     -47.031   1.875  19.730  1.00 -0.21     0.007 A 
HETATM   21  C   MOL     1     -46.353   1.759  20.923  1.00 -0.25     0.001 A 
HETATM   22  C   MOL     1     -46.115   0.515  21.460  1.00 -0.37     0.000 A 
HETATM   23  C   MOL     1     -46.557  -0.612  20.804  1.00 -0.40     0.001 A 
HETATM   24  C   MOL     1     -47.235  -0.493  19.613  1.00 -0.21     0.007 A 
ENDBRANCH  18  19
ENDBRANCH  17  18
BRANCH  17  25
HETATM   25  N   MOL     1     -49.848  -0.414  16.432  1.00  0.15    -0.221 NA
HETATM   26  H   MOL     1     -49.826   0.015  15.498  1.00  0.32     0.134 HD
BRANCH  25  27
HETATM   27  P   MOL     1     -50.527  -1.759  16.385  1.00  0.09     0.413 P 
HETATM   28  O   MOL     1     -50.261  -2.464  15.081  1.00  0.07    -0.239 OA
BRANCH  27  29
HETATM   29  O   MOL     1     -52.111  -1.623  16.627  1.00  0.12    -0.299 OA
BRANCH  29  30
HETATM   30  C   MOL     1     -52.595  -1.446  17.967  1.00 -0.20     0.214 C 
BRANCH  30  31
HETATM   31  C   MOL     1     -53.567  -0.256  18.015  1.00 -0.04     0.180 C 
HETATM   32  O   MOL     1     -53.941   0.170  16.694  1.00  0.26    -0.347 OA
HETATM   33  C   MOL     1     -54.143   1.595  16.666  1.00 -0.04     0.222 C 
HETATM   34  C   MOL     1     -53.822   2.101  18.093  1.00 -0.10     0.205 C 
HETATM   35  C   MOL     1     -55.551   1.857  16.341  1.00 -0.21     0.107 C 
HETATM   36  C   MOL     1     -52.971   0.980  18.704  1.00 -0.06     0.182 C 
HETATM   37  N   MOL     1     -56.641   2.058  16.090  1.00  0.07    -0.193 NA
BRANCH  33  38
HETATM   38  C   MOL     1     -53.231   2.108  15.557  1.00 -0.19     0.088 A 
HETATM   39  N   MOL     1     -53.317   3.386  15.118  1.00 -0.03    -0.229 N 
HETATM   40  C   MOL     1     -52.376   3.493  14.142  1.00 -0.22     0.104 A 
HETATM   41  N   MOL     1     -54.104   4.449  15.458  1.00  0.23    -0.160 NA
HETATM   42  C   MOL     1     -51.716   2.320  13.965  1.00 -0.37     0.038 A 
HETATM   43  C   MOL     1     -52.239   4.748  13.494  1.00 -0.44     0.151 A 
HETATM   44  C   MOL     1     -52.277   1.428  14.884  1.00 -0.17     0.034 A 
HETATM   45  N   MOL     1     -53.004   5.800  13.815  1.00 -0.19    -0.221 NA
HETATM   46  C   MOL     1     -53.921   5.576  14.811  1.00 -0.33     0.258 A 
BRANCH  43  47
HETATM   47  N   MOL     1     -51.307   4.931  12.500  1.00 -0.25    -0.382 N 
HETATM   48  H   MOL     1     -51.400   5.596  11.930  1.00 -0.27     0.157 HD
HETATM   49  H   MOL     1     -50.617   4.389  12.430  1.00 -0.19     0.157 HD
ENDBRANCH  43  47
ENDBRANCH  33  38
BRANCH  34  50
HETATM   50  O   MOL     1     -53.136   3.363  18.112  1.00  0.41    -0.388 OA
HETATM   51  H   MOL     1     -53.081   3.735  19.045  1.00 -0.42     0.210 HD
ENDBRANCH  34  50
BRANCH  36  52
HETATM   52  O   MOL     1     -51.592   1.174  18.351  1.00  0.07    -0.390 OA
HETATM   53  H   MOL     1     -51.102   0.297  18.292  1.00 -0.09     0.210 HD
ENDBRANCH  36  52
ENDBRANCH  30  31
ENDBRANCH  29  30
ENDBRANCH  27  29
BRANCH  27  54
HETATM   54  O   MOL     1     -50.048  -2.669  17.628  1.00  0.13    -0.260 OA
BRANCH  54  55
HETATM   55  C   MOL     1     -49.974  -4.032  17.548  1.00 -0.29     0.080 A 
HETATM   56  C   MOL     1     -51.107  -4.824  17.548  1.00 -0.28     0.037 A 
HETATM   57  C   MOL     1     -51.000  -6.193  17.463  1.00 -0.40     0.003 A 
HETATM   58  C   MOL     1     -49.759  -6.782  17.375  1.00 -0.35     0.000 A 
HETATM   59  C   MOL     1     -48.626  -6.001  17.375  1.00 -0.47     0.003 A 
HETATM   60  C   MOL     1     -48.733  -4.633  17.463  1.00 -0.37     0.037 A 
ENDBRANCH  54  55
ENDBRANCH  27  54
ENDBRANCH  25  27
ENDBRANCH  17  25
ENDBRANCH  16  17
ENDBRANCH  13  16
ENDBRANCH   8  13
ENDBRANCH   7   8
ENDBRANCH   3   7
TORSDOF 20
ENDMDL
MODEL 9
REMARK VINA RESULT:      -5.3      2.086      4.991
REMARK  20 active torsions:
REMARK  status: ('A' for Active; 'I' for Inactive)
REMARK    1  A    between atoms: C_3  and  C_7 
REMARK    2  A    between atoms: C_7  and  C_8 
REMARK    3  A    between atoms: C_8  and  N_9 
REMARK    4  A    between atoms: C_8  and  C_10 
REMARK    5  A    between atoms: C_10  and  O_11 
REMARK    6  A    between atoms: C_10  and  C_12 
REMARK    7  A    between atoms: C_12  and  C_13 
REMARK    8  A    between atoms: C_13  and  C_14 
REMARK    9  A    between atoms: C_13  and  N_21 
REMARK   10  A    between atoms: C_14  and  C_15 
REMARK   11  A    between atoms: N_21  and  P_22 
REMARK   12  A    between atoms: P_22  and  O_23 
REMARK   13  A    between atoms: P_22  and  O_24 
REMARK   14  A    between atoms: O_23  and  C_26 
REMARK   15  A    between atoms: O_24  and  C_27 
REMARK   16  A    between atoms: C_26  and  C_33 
REMARK   17  A    between atoms: C_35  and  C_40 
REMARK   18  A    between atoms: C_36  and  O_39 
REMARK   19  A    between atoms: C_37  and  O_38 
REMARK   20  A    between atoms: C_50  and  N_51 
ROOT
HETATM    1  C   MOL     1     -43.004  -1.261  19.560  1.00 -0.25     0.001 A 
HETATM    2  C   MOL     1     -43.748  -1.368  18.406  1.00 -0.30     0.007 A 
HETATM    3  C   MOL     1     -44.221  -0.237  17.776  1.00 -0.25    -0.056 A 
HETATM    4  C   MOL     1     -43.943   1.002  18.310  1.00 -0.33     0.007 A 
HETATM    5  C   MOL     1     -43.200   1.111  19.464  1.00 -0.34     0.001 A 
HETATM    6  C   MOL     1     -42.731  -0.022  20.088  1.00 -0.27     0.000 A 
ENDROOT
BRANCH   3   7
HETATM    7  C   MOL     1     -45.041  -0.357  16.499  1.00 -0.43     0.074 C 
BRANCH   7   8
HETATM    8  C   MOL     1     -45.107  -1.777  15.894  1.00 -0.43     0.216 C 
BRANCH   8   9
HETATM    9  N   MOL     1     -44.147  -1.864  14.738  1.00  0.05    -0.072 N 
HETATM   10  H   MOL     1     -43.953  -2.726  14.523  1.00 -0.64     0.274 HD
HETATM   11  H   MOL     1     -44.488  -1.474  13.989  1.00 -0.76     0.274 HD
HETATM   12  H   MOL     1     -43.361  -1.442  14.908  1.00 -0.15     0.274 HD
ENDBRANCH   8   9
BRANCH   8  13
HETATM   13  C   MOL     1     -46.553  -2.096  15.449  1.00 -0.29     0.150 C 
BRANCH  13  14
HETATM   14  O   MOL     1     -46.534  -2.936  14.282  1.00  0.06    -0.393 OA
HETATM   15  H   MOL     1     -47.355  -2.796  13.719  1.00 -0.27     0.210 HD
ENDBRANCH  13  14
BRANCH  13  16
HETATM   16  C   MOL     1     -47.340  -0.805  15.133  1.00 -0.14     0.054 C 
BRANCH  16  17
HETATM   17  C   MOL     1     -48.805  -0.898  15.612  1.00 -0.12     0.073 C 
BRANCH  17  18
HETATM   18  C   MOL     1     -49.676  -1.509  14.490  1.00 -0.13     0.058 C 
BRANCH  18  19
HETATM   19  C   MOL     1     -50.546  -2.686  14.902  1.00 -0.16    -0.057 A 
HETATM   20  C   MOL     1     -50.066  -3.974  14.802  1.00 -0.21     0.007 A 
HETATM   21  C   MOL     1     -50.855  -5.041  15.172  1.00 -0.25     0.001 A 
HETATM   22  C   MOL     1     -52.129  -4.824  15.642  1.00 -0.37     0.000 A 
HETATM   23  C   MOL     1     -52.614  -3.539  15.744  1.00 -0.40     0.001 A 
HETATM   24  C   MOL     1     -51.823  -2.474  15.375  1.00 -0.21     0.007 A 
ENDBRANCH  18  19
ENDBRANCH  17  18
BRANCH  17  25
HETATM   25  N   MOL     1     -48.882  -1.748  16.808  1.00  0.15    -0.221 NA
HETATM   26  H   MOL     1     -48.044  -2.341  16.876  1.00  0.32     0.134 HD
BRANCH  25  27
HETATM   27  P   MOL     1     -49.100  -0.985  18.091  1.00  0.09     0.413 P 
HETATM   28  O   MOL     1     -49.076  -1.902  19.286  1.00  0.07    -0.239 OA
BRANCH  27  29
HETATM   29  O   MOL     1     -50.480  -0.162  18.054  1.00  0.12    -0.299 OA
BRANCH  29  30
HETATM   30  C   MOL     1     -51.177   0.079  19.285  1.00 -0.20     0.214 C 
BRANCH  30  31
HETATM   31  C   MOL     1     -52.513   0.784  18.997  1.00 -0.04     0.180 C 
HETATM   32  O   MOL     1     -53.026   0.426  17.702  1.00  0.26    -0.347 OA
HETATM   33  C   MOL     1     -53.728   1.539  17.118  1.00 -0.04     0.222 C 
HETATM   34  C   MOL     1     -53.599   2.704  18.127  1.00 -0.10     0.205 C 
HETATM   35  C   MOL     1     -55.138   1.162  16.956  1.00 -0.21     0.107 C 
HETATM   36  C   MOL     1     -52.396   2.315  18.996  1.00 -0.06     0.182 C 
HETATM   37  N   MOL     1     -56.230   0.870  16.832  1.00  0.07    -0.193 NA
BRANCH  33  38
HETATM   38  C   MOL     1     -53.072   1.758  15.759  1.00 -0.19     0.088 A 
HETATM   39  N   MOL     1     -53.640   2.565  14.832  1.00 -0.03    -0.229 N 
HETATM   40  C   MOL     1     -52.802   2.526  13.762  1.00 -0.22     0.104 A 
HETATM   41  N   MOL     1     -54.782   3.314  14.805  1.00  0.23    -0.160 NA
HETATM   42  C   MOL     1     -51.736   1.719  14.002  1.00 -0.37     0.038 A 
HETATM   43  C   MOL     1     -53.153   3.294  12.622  1.00 -0.44     0.151 A 
HETATM   44  C   MOL     1     -51.920   1.225  15.296  1.00 -0.17     0.034 A 
HETATM   45  N   MOL     1     -54.270   4.033  12.580  1.00 -0.19    -0.221 NA
HETATM   46  C   MOL     1     -55.041   3.995  13.714  1.00 -0.33     0.258 A 
BRANCH  43  47
HETATM   47  N   MOL     1     -52.352   3.306  11.504  1.00 -0.25    -0.382 N 
HETATM   48  H   MOL     1     -52.717   3.349  10.705  1.00 -0.27     0.157 HD
HETATM   49  H   MOL     1     -51.475   3.272  11.584  1.00 -0.19     0.157 HD
ENDBRANCH  43  47
ENDBRANCH  33  38
BRANCH  34  50
HETATM   50  O   MOL     1     -53.415   3.985  17.503  1.00  0.41    -0.388 OA
HETATM   51  H   MOL     1     -54.093   4.652  17.829  1.00 -0.42     0.210 HD
ENDBRANCH  34  50
BRANCH  36  52
HETATM   52  O   MOL     1     -51.184   2.758  18.367  1.00  0.07    -0.390 OA
HETATM   53  H   MOL     1     -50.409   2.733  19.009  1.00 -0.09     0.210 HD
ENDBRANCH  36  52
ENDBRANCH  30  31
ENDBRANCH  29  30
ENDBRANCH  27  29
BRANCH  27  54
HETATM   54  O   MOL     1     -47.990   0.174  18.246  1.00  0.13    -0.260 OA
BRANCH  54  55
HETATM   55  C   MOL     1     -47.366   0.433  19.434  1.00 -0.29     0.080 A 
HETATM   56  C   MOL     1     -46.805  -0.575  20.198  1.00 -0.28     0.037 A 
HETATM   57  C   MOL     1     -46.181  -0.281  21.388  1.00 -0.40     0.003 A 
HETATM   58  C   MOL     1     -46.110   1.022  21.825  1.00 -0.35     0.000 A 
HETATM   59  C   MOL     1     -46.667   2.030  21.072  1.00 -0.47     0.003 A 
HETATM   60  C   MOL     1     -47.293   1.737  19.885  1.00 -0.37     0.037 A 
ENDBRANCH  54  55
ENDBRANCH  27  54
ENDBRANCH  25  27
ENDBRANCH  17  25
ENDBRANCH  16  17
ENDBRANCH  13  16
ENDBRANCH   8  13
ENDBRANCH   7   8
ENDBRANCH   3   7
TORSDOF 20
ENDMDL
MODEL 10
REMARK VINA RESULT:      -5.3      3.922      7.271
REMARK  20 active torsions:
REMARK  status: ('A' for Active; 'I' for Inactive)
REMARK    1  A    between atoms: C_3  and  C_7 
REMARK    2  A    between atoms: C_7  and  C_8 
REMARK    3  A    between atoms: C_8  and  N_9 
REMARK    4  A    between atoms: C_8  and  C_10 
REMARK    5  A    between atoms: C_10  and  O_11 
REMARK    6  A    between atoms: C_10  and  C_12 
REMARK    7  A    between atoms: C_12  and  C_13 
REMARK    8  A    between atoms: C_13  and  C_14 
REMARK    9  A    between atoms: C_13  and  N_21 
REMARK   10  A    between atoms: C_14  and  C_15 
REMARK   11  A    between atoms: N_21  and  P_22 
REMARK   12  A    between atoms: P_22  and  O_23 
REMARK   13  A    between atoms: P_22  and  O_24 
REMARK   14  A    between atoms: O_23  and  C_26 
REMARK   15  A    between atoms: O_24  and  C_27 
REMARK   16  A    between atoms: C_26  and  C_33 
REMARK   17  A    between atoms: C_35  and  C_40 
REMARK   18  A    between atoms: C_36  and  O_39 
REMARK   19  A    between atoms: C_37  and  O_38 
REMARK   20  A    between atoms: C_50  and  N_51 
ROOT
HETATM    1  C   MOL     1     -44.183   0.449  19.134  1.00 -0.25     0.001 A 
HETATM    2  C   MOL     1     -44.858   0.464  17.935  1.00 -0.30     0.007 A 
HETATM    3  C   MOL     1     -44.733  -0.587  17.053  1.00 -0.25    -0.056 A 
HETATM    4  C   MOL     1     -43.927  -1.656  17.382  1.00 -0.33     0.007 A 
HETATM    5  C   MOL     1     -43.250  -1.672  18.580  1.00 -0.34     0.001 A 
HETATM    6  C   MOL     1     -43.379  -0.619  19.456  1.00 -0.27     0.000 A 
ENDROOT
BRANCH   3   7
HETATM    7  C   MOL     1     -45.483  -0.570  15.728  1.00 -0.43     0.074 C 
BRANCH   7   8
HETATM    8  C   MOL     1     -46.553  -1.673  15.567  1.00 -0.43     0.216 C 
BRANCH   8   9
HETATM    9  N   MOL     1     -45.998  -2.775  14.704  1.00  0.05    -0.072 N 
HETATM   10  H   MOL     1     -46.635  -3.136  14.166  1.00 -0.64     0.274 HD
HETATM   11  H   MOL     1     -45.332  -2.473  14.162  1.00 -0.76     0.274 HD
HETATM   12  H   MOL     1     -45.640  -3.451  15.194  1.00 -0.15     0.274 HD
ENDBRANCH   8   9
BRANCH   8  13
HETATM   13  C   MOL     1     -47.841  -1.075  14.955  1.00 -0.29     0.150 C 
BRANCH  13  14
HETATM   14  O   MOL     1     -47.502  -0.133  13.921  1.00  0.06    -0.393 OA
HETATM   15  H   MOL     1     -47.316   0.778  14.304  1.00 -0.27     0.210 HD
ENDBRANCH  13  14
BRANCH  13  16
HETATM   16  C   MOL     1     -48.694  -0.364  16.028  1.00 -0.14     0.054 C 
BRANCH  16  17
HETATM   17  C   MOL     1     -50.186  -0.748  15.917  1.00 -0.12     0.073 C 
BRANCH  17  18
HETATM   18  C   MOL     1     -50.607  -1.546  17.171  1.00 -0.13     0.058 C 
BRANCH  18  19
HETATM   19  C   MOL     1     -50.764  -3.046  16.973  1.00 -0.16    -0.057 A 
HETATM   20  C   MOL     1     -50.326  -3.643  15.811  1.00 -0.21     0.007 A 
HETATM   21  C   MOL     1     -50.470  -5.000  15.628  1.00 -0.25     0.001 A 
HETATM   22  C   MOL     1     -51.057  -5.767  16.608  1.00 -0.37     0.000 A 
HETATM   23  C   MOL     1     -51.497  -5.176  17.771  1.00 -0.40     0.001 A 
HETATM   24  C   MOL     1     -51.350  -3.819  17.951  1.00 -0.21     0.007 A 
ENDBRANCH  18  19
ENDBRANCH  17  18
BRANCH  17  25
HETATM   25  N   MOL     1     -51.003   0.469  15.814  1.00  0.15    -0.221 NA
HETATM   26  H   MOL     1     -50.486   1.276  16.187  1.00  0.32     0.134 HD
BRANCH  25  27
HETATM   27  P   MOL     1     -51.507   0.756  14.422  1.00  0.09     0.413 P 
HETATM   28  O   MOL     1     -50.617   0.137  13.376  1.00  0.07    -0.239 OA
BRANCH  27  29
HETATM   29  O   MOL     1     -51.646   2.337  14.164  1.00  0.12    -0.299 OA
BRANCH  29  30
HETATM   30  C   MOL     1     -52.942   2.882  13.876  1.00 -0.20     0.214 C 
BRANCH  30  31
HETATM   31  C   MOL     1     -52.790   4.252  13.197  1.00 -0.04     0.180 C 
HETATM   32  O   MOL     1     -54.045   4.720  12.674  1.00  0.26    -0.347 OA
HETATM   33  C   MOL     1     -53.832   5.479  11.469  1.00 -0.04     0.222 C 
HETATM   34  C   MOL     1     -52.309   5.439  11.200  1.00 -0.10     0.205 C 
HETATM   35  C   MOL     1     -54.268   6.861  11.709  1.00 -0.21     0.107 C 
HETATM   36  C   MOL     1     -51.820   4.229  12.007  1.00 -0.06     0.182 C 
HETATM   37  N   MOL     1     -54.605   7.930  11.897  1.00  0.07    -0.193 NA
BRANCH  33  38
HETATM   38  C   MOL     1     -54.713   4.814  10.416  1.00 -0.19     0.088 A 
HETATM   39  N   MOL     1     -54.899   5.383   9.201  1.00 -0.03    -0.229 N 
HETATM   40  C   MOL     1     -55.726   4.536   8.533  1.00 -0.22     0.104 A 
HETATM   41  N   MOL     1     -54.446   6.532   8.619  1.00  0.23    -0.160 NA
HETATM   42  C   MOL     1     -56.055   3.464   9.299  1.00 -0.37     0.038 A 
HETATM   43  C   MOL     1     -56.096   4.886   7.208  1.00 -0.44     0.151 A 
HETATM   44  C   MOL     1     -55.397   3.653  10.517  1.00 -0.17     0.034 A 
HETATM   45  N   MOL     1     -55.660   6.010   6.623  1.00 -0.19    -0.221 NA
HETATM   46  C   MOL     1     -54.834   6.790   7.392  1.00 -0.33     0.258 A 
BRANCH  43  47
HETATM   47  N   MOL     1     -56.926   4.076   6.470  1.00 -0.25    -0.382 N 
HETATM   48  H   MOL     1     -57.782   4.028   6.670  1.00 -0.27     0.157 HD
HETATM   49  H   MOL     1     -56.607   3.605   5.797  1.00 -0.19     0.157 HD
ENDBRANCH  43  47
ENDBRANCH  33  38
BRANCH  34  50
HETATM   50  O   MOL     1     -51.977   5.322   9.808  1.00  0.41    -0.388 OA
HETATM   51  H   MOL     1     -51.691   4.385   9.577  1.00 -0.42     0.210 HD
ENDBRANCH  34  50
BRANCH  36  52
HETATM   52  O   MOL     1     -51.965   3.035  11.223  1.00  0.07    -0.390 OA
HETATM   53  H   MOL     1     -52.261   2.258  11.790  1.00 -0.09     0.210 HD
ENDBRANCH  36  52
ENDBRANCH  30  31
ENDBRANCH  29  30
ENDBRANCH  27  29
BRANCH  27  54
HETATM   54  O   MOL     1     -53.022   0.228  14.258  1.00  0.13    -0.260 OA
BRANCH  54  55
HETATM   55  C   MOL     1     -53.461  -0.922  14.852  1.00 -0.29     0.080 A 
HETATM   56  C   MOL     1     -53.312  -2.158  14.249  1.00 -0.28     0.037 A 
HETATM   57  C   MOL     1     -53.761  -3.297  14.875  1.00 -0.40     0.003 A 
HETATM   58  C   MOL     1     -54.363  -3.213  16.110  1.00 -0.35     0.000 A 
HETATM   59  C   MOL     1     -54.516  -1.987  16.717  1.00 -0.47     0.003 A 
HETATM   60  C   MOL     1     -54.070  -0.848  16.090  1.00 -0.37     0.037 A 
ENDBRANCH  54  55
ENDBRANCH  27  54
ENDBRANCH  25  27
ENDBRANCH  17  25
ENDBRANCH  16  17
ENDBRANCH  13  16
ENDBRANCH   8  13
ENDBRANCH   7   8
ENDBRANCH   3   7
TORSDOF 20
ENDMDL
