MODEL 1
REMARK VINA RESULT:      -7.3      0.000      0.000
REMARK  10 active torsions:
REMARK  status: ('A' for Active; 'I' for Inactive)
REMARK    1  A    between atoms: O_2  and  C_15 
REMARK    2  A    between atoms: O_2  and  C_18 
REMARK    3  A    between atoms: O_3  and  C_12 
REMARK    4  A    between atoms: O_4  and  C_13 
REMARK    5  A    between atoms: O_5  and  C_14 
REMARK    6  A    between atoms: O_6  and  C_17 
REMARK    7  A    between atoms: O_9  and  C_20 
REMARK    8  A    between atoms: O_10  and  C_23 
REMARK    9  A    between atoms: C_16  and  C_17 
REMARK   10  A    between atoms: C_25  and  C_27 
ROOT
HETATM    1  O   UNK     0     -47.644  -0.954  16.361  0.00  0.00    -0.340 OA
HETATM    2  C   UNK     0     -49.783  -1.284  14.471  0.00  0.00     0.183 C 
HETATM    3  C   UNK     0     -49.871  -0.309  15.646  0.00  0.00     0.205 C 
HETATM    4  C   UNK     0     -48.330  -1.609  14.123  0.00  0.00     0.189 C 
HETATM    5  C   UNK     0     -48.984  -0.760  16.807  0.00  0.00     0.299 C 
HETATM    6  C   UNK     0     -47.544  -1.977  15.376  0.00  0.00     0.253 C 
ENDROOT
BRANCH   5   7
HETATM    7  O   UNK     0     -49.017   0.258  17.807  0.00  0.00    -0.315 OA
BRANCH   7   8
HETATM    8  C   UNK     0     -48.072   0.181  18.788  0.00  0.00     0.110 A 
HETATM    9  C   UNK     0     -46.893   0.916  18.661  0.00  0.00     0.078 A 
HETATM   10  C   UNK     0     -45.920   0.845  19.660  0.00  0.00     0.096 A 
HETATM   11  O   UNK     0     -44.783   1.589  19.479  0.00  0.00    -0.309 OA
HETATM   12  C   UNK     0     -46.129   0.040  20.778  0.00  0.00     0.084 A 
HETATM   13  C   UNK     0     -43.802   1.543  20.458  0.00  0.00     0.090 A 
HETATM   14  C   UNK     0     -43.882   0.804  21.575  0.00  0.00     0.094 A 
HETATM   15  C   UNK     0     -45.086  -0.019  21.814  0.00  0.00     0.190 A 
HETATM   16  O   UNK     0     -45.200  -0.706  22.820  0.00  0.00    -0.287 OA
HETATM   17  C   UNK     0     -47.308  -0.698  20.909  0.00  0.00     0.118 A 
HETATM   18  C   UNK     0     -48.278  -0.624  19.909  0.00  0.00     0.134 A 
BRANCH  13  19
HETATM   19  C   UNK     0     -42.619   2.377  20.162  0.00  0.00    -0.002 A 
HETATM   20  C   UNK     0     -41.818   2.854  21.203  0.00  0.00     0.014 A 
HETATM   21  C   UNK     0     -40.701   3.641  20.923  0.00  0.00     0.001 A 
HETATM   22  C   UNK     0     -40.380   3.953  19.602  0.00  0.00     0.000 A 
HETATM   23  C   UNK     0     -41.177   3.478  18.560  0.00  0.00     0.001 A 
HETATM   24  C   UNK     0     -42.295   2.692  18.841  0.00  0.00     0.014 A 
ENDBRANCH  13  19
BRANCH  17  25
HETATM   25  O   UNK     0     -47.546  -1.495  21.988  0.00  0.00    -0.357 OA
HETATM   26  H   UNK     0     -47.338  -2.420  21.786  0.00  0.00     0.217 HD
ENDBRANCH  17  25
BRANCH  18  27
HETATM   27  O   UNK     0     -49.434  -1.341  20.025  0.00  0.00    -0.356 OA
HETATM   28  H   UNK     0     -50.066  -1.015  19.361  0.00  0.00     0.218 HD
ENDBRANCH  18  27
ENDBRANCH   7   8
ENDBRANCH   5   7
BRANCH   6  29
HETATM   29  C   UNK     0     -46.078  -2.035  15.090  0.00  0.00     0.172 C 
HETATM   30  O   UNK     0     -45.248  -1.247  15.516  0.00  0.00    -0.648 OA
BRANCH  29  31
HETATM   31  O   UNK     0     -45.790  -3.086  14.284  0.00  0.00    -0.774 OA
HETATM   32  H   UNK     0     -46.410  -3.834  14.420  0.00  0.00     0.167 HD
ENDBRANCH  29  31
ENDBRANCH   6  29
BRANCH   3  33
HETATM   33  O   UNK     0     -51.220  -0.248  16.110  0.00  0.00    -0.388 OA
HETATM   34  H   UNK     0     -51.206  -0.377  17.073  0.00  0.00     0.210 HD
ENDBRANCH   3  33
BRANCH   4  35
HETATM   35  O   UNK     0     -48.302  -2.716  13.224  0.00  0.00    -0.390 OA
HETATM   36  H   UNK     0     -48.943  -3.376  13.539  0.00  0.00     0.210 HD
ENDBRANCH   4  35
BRANCH   2  37
HETATM   37  O   UNK     0     -50.394  -0.700  13.320  0.00  0.00    -0.390 OA
HETATM   38  H   UNK     0     -49.961  -1.074  12.535  0.00  0.00     0.210 HD
ENDBRANCH   2  37
TORSDOF 10
ENDMDL
MODEL 2
REMARK VINA RESULT:      -7.2      5.589      7.846
REMARK  10 active torsions:
REMARK  status: ('A' for Active; 'I' for Inactive)
REMARK    1  A    between atoms: O_2  and  C_15 
REMARK    2  A    between atoms: O_2  and  C_18 
REMARK    3  A    between atoms: O_3  and  C_12 
REMARK    4  A    between atoms: O_4  and  C_13 
REMARK    5  A    between atoms: O_5  and  C_14 
REMARK    6  A    between atoms: O_6  and  C_17 
REMARK    7  A    between atoms: O_9  and  C_20 
REMARK    8  A    between atoms: O_10  and  C_23 
REMARK    9  A    between atoms: C_16  and  C_17 
REMARK   10  A    between atoms: C_25  and  C_27 
ROOT
HETATM    1  O   UNK     0     -48.307  -1.929  16.374  0.00  0.00    -0.340 OA
HETATM    2  C   UNK     0     -49.950  -1.248  14.116  0.00  0.00     0.183 C 
HETATM    3  C   UNK     0     -50.519  -1.902  15.375  0.00  0.00     0.205 C 
HETATM    4  C   UNK     0     -48.626  -0.539  14.405  0.00  0.00     0.189 C 
HETATM    5  C   UNK     0     -49.455  -2.729  16.098  0.00  0.00     0.299 C 
HETATM    6  C   UNK     0     -47.686  -1.449  15.187  0.00  0.00     0.253 C 
ENDROOT
BRANCH   5   7
HETATM    7  O   UNK     0     -50.020  -3.199  17.323  0.00  0.00    -0.315 OA
BRANCH   7   8
HETATM    8  C   UNK     0     -49.929  -4.539  17.563  0.00  0.00     0.110 A 
HETATM    9  C   UNK     0     -48.725  -5.070  18.025  0.00  0.00     0.078 A 
HETATM   10  C   UNK     0     -48.622  -6.440  18.274  0.00  0.00     0.096 A 
HETATM   11  O   UNK     0     -47.413  -6.904  18.727  0.00  0.00    -0.309 OA
HETATM   12  C   UNK     0     -49.719  -7.271  18.059  0.00  0.00     0.084 A 
HETATM   13  C   UNK     0     -47.283  -8.259  18.990  0.00  0.00     0.090 A 
HETATM   14  C   UNK     0     -48.263  -9.160  18.817  0.00  0.00     0.094 A 
HETATM   15  C   UNK     0     -49.582  -8.711  18.328  0.00  0.00     0.190 A 
HETATM   16  O   UNK     0     -50.503  -9.499  18.159  0.00  0.00    -0.287 OA
HETATM   17  C   UNK     0     -50.927  -6.742  17.596  0.00  0.00     0.118 A 
HETATM   18  C   UNK     0     -51.027  -5.373  17.349  0.00  0.00     0.134 A 
BRANCH  13  19
HETATM   19  C   UNK     0     -45.942  -8.652  19.468  0.00  0.00    -0.002 A 
HETATM   20  C   UNK     0     -45.592  -8.464  20.808  0.00  0.00     0.014 A 
HETATM   21  C   UNK     0     -44.325  -8.836  21.259  0.00  0.00     0.001 A 
HETATM   22  C   UNK     0     -43.405  -9.397  20.373  0.00  0.00     0.000 A 
HETATM   23  C   UNK     0     -43.751  -9.586  19.035  0.00  0.00     0.001 A 
HETATM   24  C   UNK     0     -45.018  -9.214  18.584  0.00  0.00     0.014 A 
ENDBRANCH  13  19
BRANCH  17  25
HETATM   25  O   UNK     0     -52.021  -7.525  17.375  0.00  0.00    -0.357 OA
HETATM   26  H   UNK     0     -51.825  -8.213  16.721  0.00  0.00     0.217 HD
ENDBRANCH  17  25
BRANCH  18  27
HETATM   27  O   UNK     0     -52.201  -4.845  16.895  0.00  0.00    -0.356 OA
HETATM   28  H   UNK     0     -52.065  -3.898  16.719  0.00  0.00     0.218 HD
ENDBRANCH  18  27
ENDBRANCH   7   8
ENDBRANCH   5   7
BRANCH   6  29
HETATM   29  C   UNK     0     -46.508  -0.686  15.701  0.00  0.00     0.172 C 
HETATM   30  O   UNK     0     -46.417  -0.208  16.822  0.00  0.00    -0.648 OA
BRANCH  29  31
HETATM   31  O   UNK     0     -45.547  -0.591  14.750  0.00  0.00    -0.774 OA
HETATM   32  H   UNK     0     -44.899  -1.325  14.809  0.00  0.00     0.167 HD
ENDBRANCH  29  31
ENDBRANCH   6  29
BRANCH   3  33
HETATM   33  O   UNK     0     -51.592  -2.772  15.013  0.00  0.00    -0.388 OA
HETATM   34  H   UNK     0     -51.886  -3.229  15.819  0.00  0.00     0.210 HD
ENDBRANCH   3  33
BRANCH   4  35
HETATM   35  O   UNK     0     -48.004  -0.190  13.170  0.00  0.00    -0.390 OA
HETATM   36  H   UNK     0     -47.641  -1.001  12.776  0.00  0.00     0.210 HD
ENDBRANCH   4  35
BRANCH   2  37
HETATM   37  O   UNK     0     -50.874  -0.276  13.625  0.00  0.00    -0.390 OA
HETATM   38  H   UNK     0     -51.093   0.320  14.360  0.00  0.00     0.210 HD
ENDBRANCH   2  37
TORSDOF 10
ENDMDL
MODEL 3
REMARK VINA RESULT:      -7.2      6.069      8.168
REMARK  10 active torsions:
REMARK  status: ('A' for Active; 'I' for Inactive)
REMARK    1  A    between atoms: O_2  and  C_15 
REMARK    2  A    between atoms: O_2  and  C_18 
REMARK    3  A    between atoms: O_3  and  C_12 
REMARK    4  A    between atoms: O_4  and  C_13 
REMARK    5  A    between atoms: O_5  and  C_14 
REMARK    6  A    between atoms: O_6  and  C_17 
REMARK    7  A    between atoms: O_9  and  C_20 
REMARK    8  A    between atoms: O_10  and  C_23 
REMARK    9  A    between atoms: C_16  and  C_17 
REMARK   10  A    between atoms: C_25  and  C_27 
ROOT
HETATM    1  O   UNK     0     -48.028  -2.602  17.288  0.00  0.00    -0.340 OA
HETATM    2  C   UNK     0     -47.998  -2.103  14.458  0.00  0.00     0.183 C 
HETATM    3  C   UNK     0     -49.100  -2.919  15.134  0.00  0.00     0.205 C 
HETATM    4  C   UNK     0     -47.292  -1.184  15.455  0.00  0.00     0.189 C 
HETATM    5  C   UNK     0     -48.592  -3.579  16.416  0.00  0.00     0.299 C 
HETATM    6  C   UNK     0     -46.900  -1.951  16.713  0.00  0.00     0.253 C 
ENDROOT
BRANCH   5   7
HETATM    7  O   UNK     0     -49.702  -4.211  17.055  0.00  0.00    -0.315 OA
BRANCH   7   8
HETATM    8  C   UNK     0     -49.514  -5.494  17.477  0.00  0.00     0.110 A 
HETATM    9  C   UNK     0     -48.285  -5.859  18.027  0.00  0.00     0.078 A 
HETATM   10  C   UNK     0     -48.081  -7.170  18.463  0.00  0.00     0.096 A 
HETATM   11  O   UNK     0     -46.853  -7.470  18.994  0.00  0.00    -0.309 OA
HETATM   12  C   UNK     0     -49.105  -8.108  18.347  0.00  0.00     0.084 A 
HETATM   13  C   UNK     0     -46.625  -8.762  19.442  0.00  0.00     0.090 A 
HETATM   14  C   UNK     0     -47.527  -9.754  19.379  0.00  0.00     0.094 A 
HETATM   15  C   UNK     0     -48.863  -9.483  18.812  0.00  0.00     0.190 A 
HETATM   16  O   UNK     0     -49.715 -10.358  18.739  0.00  0.00    -0.287 OA
HETATM   17  C   UNK     0     -50.337  -7.746  17.797  0.00  0.00     0.118 A 
HETATM   18  C   UNK     0     -50.537  -6.436  17.363  0.00  0.00     0.134 A 
BRANCH  13  19
HETATM   19  C   UNK     0     -45.270  -8.977  19.990  0.00  0.00    -0.002 A 
HETATM   20  C   UNK     0     -44.966  -8.566  21.290  0.00  0.00     0.014 A 
HETATM   21  C   UNK     0     -43.687  -8.770  21.808  0.00  0.00     0.001 A 
HETATM   22  C   UNK     0     -42.708  -9.385  21.028  0.00  0.00     0.000 A 
HETATM   23  C   UNK     0     -43.008  -9.796  19.729  0.00  0.00     0.001 A 
HETATM   24  C   UNK     0     -44.287  -9.592  19.211  0.00  0.00     0.014 A 
ENDBRANCH  13  19
BRANCH  17  25
HETATM   25  O   UNK     0     -51.361  -8.637  17.668  0.00  0.00    -0.357 OA
HETATM   26  H   UNK     0     -51.138  -9.482  18.089  0.00  0.00     0.217 HD
ENDBRANCH  17  25
BRANCH  18  27
HETATM   27  O   UNK     0     -51.737  -6.070  16.823  0.00  0.00    -0.356 OA
HETATM   28  H   UNK     0     -52.109  -6.837  16.353  0.00  0.00     0.218 HD
ENDBRANCH  18  27
ENDBRANCH   7   8
ENDBRANCH   5   7
BRANCH   6  29
HETATM   29  C   UNK     0     -46.456  -1.018  17.792  0.00  0.00     0.172 C 
HETATM   30  O   UNK     0     -45.962  -1.360  18.857  0.00  0.00    -0.648 OA
BRANCH  29  31
HETATM   31  O   UNK     0     -46.677   0.270  17.433  0.00  0.00    -0.774 OA
HETATM   32  H   UNK     0     -46.649   0.389  16.459  0.00  0.00     0.167 HD
ENDBRANCH  29  31
ENDBRANCH   6  29
BRANCH   3  33
HETATM   33  O   UNK     0     -49.541  -3.946  14.246  0.00  0.00    -0.388 OA
HETATM   34  H   UNK     0     -49.018  -3.875  13.430  0.00  0.00     0.210 HD
ENDBRANCH   3  33
BRANCH   4  35
HETATM   35  O   UNK     0     -46.111  -0.660  14.853  0.00  0.00    -0.390 OA
HETATM   36  H   UNK     0     -45.385  -0.735  15.496  0.00  0.00     0.210 HD
ENDBRANCH   4  35
BRANCH   2  37
HETATM   37  O   UNK     0     -48.569  -1.287  13.433  0.00  0.00    -0.390 OA
HETATM   38  H   UNK     0     -49.437  -1.660  13.210  0.00  0.00     0.210 HD
ENDBRANCH   2  37
TORSDOF 10
ENDMDL
MODEL 4
REMARK VINA RESULT:      -7.0      4.866      6.883
REMARK  10 active torsions:
REMARK  status: ('A' for Active; 'I' for Inactive)
REMARK    1  A    between atoms: O_2  and  C_15 
REMARK    2  A    between atoms: O_2  and  C_18 
REMARK    3  A    between atoms: O_3  and  C_12 
REMARK    4  A    between atoms: O_4  and  C_13 
REMARK    5  A    between atoms: O_5  and  C_14 
REMARK    6  A    between atoms: O_6  and  C_17 
REMARK    7  A    between atoms: O_9  and  C_20 
REMARK    8  A    between atoms: O_10  and  C_23 
REMARK    9  A    between atoms: C_16  and  C_17 
REMARK   10  A    between atoms: C_25  and  C_27 
ROOT
HETATM    1  O   UNK     0     -47.841  -7.485  18.135  0.00  0.00    -0.340 OA
HETATM    2  C   UNK     0     -49.631  -7.929  20.338  0.00  0.00     0.183 C 
HETATM    3  C   UNK     0     -50.092  -7.303  19.021  0.00  0.00     0.205 C 
HETATM    4  C   UNK     0     -48.351  -8.743  20.151  0.00  0.00     0.189 C 
HETATM    5  C   UNK     0     -48.939  -6.593  18.312  0.00  0.00     0.299 C 
HETATM    6  C   UNK     0     -47.311  -7.945  19.373  0.00  0.00     0.253 C 
ENDROOT
BRANCH   5   7
HETATM    7  O   UNK     0     -49.410  -6.150  17.039  0.00  0.00    -0.315 OA
BRANCH   7   8
HETATM    8  C   UNK     0     -48.999  -4.914  16.632  0.00  0.00     0.110 A 
HETATM    9  C   UNK     0     -47.920  -4.307  17.274  0.00  0.00     0.078 A 
HETATM   10  C   UNK     0     -47.491  -3.043  16.865  0.00  0.00     0.096 A 
HETATM   11  O   UNK     0     -46.426  -2.496  17.534  0.00  0.00    -0.309 OA
HETATM   12  C   UNK     0     -48.143  -2.392  15.819  0.00  0.00     0.084 A 
HETATM   13  C   UNK     0     -45.974  -1.245  17.145  0.00  0.00     0.090 A 
HETATM   14  C   UNK     0     -46.520  -0.517  16.158  0.00  0.00     0.094 A 
HETATM   15  C   UNK     0     -47.672  -1.060  15.410  0.00  0.00     0.190 A 
HETATM   16  O   UNK     0     -48.197  -0.430  14.502  0.00  0.00    -0.287 OA
HETATM   17  C   UNK     0     -49.224  -2.997  15.174  0.00  0.00     0.118 A 
HETATM   18  C   UNK     0     -49.650  -4.261  15.585  0.00  0.00     0.134 A 
BRANCH  13  19
HETATM   19  C   UNK     0     -44.827  -0.749  17.933  0.00  0.00    -0.002 A 
HETATM   20  C   UNK     0     -44.699   0.616  18.203  0.00  0.00     0.014 A 
HETATM   21  C   UNK     0     -43.616   1.083  18.948  0.00  0.00     0.001 A 
HETATM   22  C   UNK     0     -42.659   0.189  19.427  0.00  0.00     0.000 A 
HETATM   23  C   UNK     0     -42.784  -1.175  19.159  0.00  0.00     0.001 A 
HETATM   24  C   UNK     0     -43.867  -1.642  18.413  0.00  0.00     0.014 A 
ENDBRANCH  13  19
BRANCH  17  25
HETATM   25  O   UNK     0     -49.884  -2.391  14.147  0.00  0.00    -0.357 OA
HETATM   26  H   UNK     0     -50.558  -2.980  13.775  0.00  0.00     0.217 HD
ENDBRANCH  17  25
BRANCH  18  27
HETATM   27  O   UNK     0     -50.705  -4.862  14.962  0.00  0.00    -0.356 OA
HETATM   28  H   UNK     0     -51.432  -4.218  14.897  0.00  0.00     0.218 HD
ENDBRANCH  18  27
ENDBRANCH   7   8
ENDBRANCH   5   7
BRANCH   6  29
HETATM   29  C   UNK     0     -46.170  -8.815  18.957  0.00  0.00     0.172 C 
HETATM   30  O   UNK     0     -45.074  -8.411  18.600  0.00  0.00    -0.648 OA
BRANCH  29  31
HETATM   31  O   UNK     0     -46.516 -10.124  19.026  0.00  0.00    -0.774 OA
HETATM   32  H   UNK     0     -45.739 -10.701  19.183  0.00  0.00     0.167 HD
ENDBRANCH  29  31
ENDBRANCH   6  29
BRANCH   3  33
HETATM   33  O   UNK     0     -51.115  -6.342  19.286  0.00  0.00    -0.388 OA
HETATM   34  H   UNK     0     -51.969  -6.802  19.246  0.00  0.00     0.210 HD
ENDBRANCH   3  33
BRANCH   4  35
HETATM   35  O   UNK     0     -47.814  -9.069  21.431  0.00  0.00    -0.390 OA
HETATM   36  H   UNK     0     -47.881 -10.032  21.550  0.00  0.00     0.210 HD
ENDBRANCH   4  35
BRANCH   2  37
HETATM   37  O   UNK     0     -50.646  -8.806  20.830  0.00  0.00    -0.390 OA
HETATM   38  H   UNK     0     -50.934  -9.367  20.091  0.00  0.00     0.210 HD
ENDBRANCH   2  37
TORSDOF 10
ENDMDL
MODEL 5
REMARK VINA RESULT:      -6.9      1.666      3.363
REMARK  10 active torsions:
REMARK  status: ('A' for Active; 'I' for Inactive)
REMARK    1  A    between atoms: O_2  and  C_15 
REMARK    2  A    between atoms: O_2  and  C_18 
REMARK    3  A    between atoms: O_3  and  C_12 
REMARK    4  A    between atoms: O_4  and  C_13 
REMARK    5  A    between atoms: O_5  and  C_14 
REMARK    6  A    between atoms: O_6  and  C_17 
REMARK    7  A    between atoms: O_9  and  C_20 
REMARK    8  A    between atoms: O_10  and  C_23 
REMARK    9  A    between atoms: C_16  and  C_17 
REMARK   10  A    between atoms: C_25  and  C_27 
ROOT
HETATM    1  O   UNK     0     -47.373  -1.111  17.640  0.00  0.00    -0.340 OA
HETATM    2  C   UNK     0     -45.977  -1.857  15.242  0.00  0.00     0.183 C 
HETATM    3  C   UNK     0     -45.422  -2.148  16.637  0.00  0.00     0.205 C 
HETATM    4  C   UNK     0     -47.492  -1.657  15.274  0.00  0.00     0.189 C 
HETATM    5  C   UNK     0     -45.948  -1.143  17.662  0.00  0.00     0.299 C 
HETATM    6  C   UNK     0     -47.886  -0.687  16.382  0.00  0.00     0.253 C 
ENDROOT
BRANCH   5   7
HETATM    7  O   UNK     0     -45.495  -1.552  18.953  0.00  0.00    -0.315 OA
BRANCH   7   8
HETATM    8  C   UNK     0     -45.284  -0.563  19.868  0.00  0.00     0.110 A 
HETATM    9  C   UNK     0     -44.199   0.299  19.704  0.00  0.00     0.078 A 
HETATM   10  C   UNK     0     -43.974   1.315  20.634  0.00  0.00     0.096 A 
HETATM   11  O   UNK     0     -42.892   2.130  20.421  0.00  0.00    -0.309 OA
HETATM   12  C   UNK     0     -44.831   1.464  21.723  0.00  0.00     0.084 A 
HETATM   13  C   UNK     0     -42.647   3.153  21.325  0.00  0.00     0.090 A 
HETATM   14  C   UNK     0     -43.395   3.395  22.413  0.00  0.00     0.094 A 
HETATM   15  C   UNK     0     -44.569   2.542  22.689  0.00  0.00     0.190 A 
HETATM   16  O   UNK     0     -45.278   2.730  23.669  0.00  0.00    -0.287 OA
HETATM   17  C   UNK     0     -45.918   0.603  21.890  0.00  0.00     0.118 A 
HETATM   18  C   UNK     0     -46.141  -0.411  20.959  0.00  0.00     0.134 A 
BRANCH  13  19
HETATM   19  C   UNK     0     -41.457   3.966  21.003  0.00  0.00    -0.002 A 
HETATM   20  C   UNK     0     -40.866   3.876  19.740  0.00  0.00     0.014 A 
HETATM   21  C   UNK     0     -39.743   4.645  19.436  0.00  0.00     0.001 A 
HETATM   22  C   UNK     0     -39.207   5.507  20.393  0.00  0.00     0.000 A 
HETATM   23  C   UNK     0     -39.795   5.600  21.655  0.00  0.00     0.001 A 
HETATM   24  C   UNK     0     -40.918   4.831  21.959  0.00  0.00     0.014 A 
ENDBRANCH  13  19
BRANCH  17  25
HETATM   25  O   UNK     0     -46.777   0.720  22.942  0.00  0.00    -0.357 OA
HETATM   26  H   UNK     0     -47.698   0.665  22.643  0.00  0.00     0.217 HD
ENDBRANCH  17  25
BRANCH  18  27
HETATM   27  O   UNK     0     -47.199  -1.259  21.112  0.00  0.00    -0.356 OA
HETATM   28  H   UNK     0     -47.734  -1.234  20.299  0.00  0.00     0.218 HD
ENDBRANCH  18  27
ENDBRANCH   7   8
ENDBRANCH   5   7
BRANCH   6  29
HETATM   29  C   UNK     0     -49.365  -0.690  16.595  0.00  0.00     0.172 C 
HETATM   30  O   UNK     0     -49.991   0.180  17.182  0.00  0.00    -0.648 OA
BRANCH  29  31
HETATM   31  O   UNK     0     -49.925  -1.797  16.049  0.00  0.00    -0.774 OA
HETATM   32  H   UNK     0     -50.847  -1.634  15.756  0.00  0.00     0.167 HD
ENDBRANCH  29  31
ENDBRANCH   6  29
BRANCH   3  33
HETATM   33  O   UNK     0     -43.998  -2.055  16.609  0.00  0.00    -0.388 OA
HETATM   34  H   UNK     0     -43.666  -2.773  16.045  0.00  0.00     0.210 HD
ENDBRANCH   3  33
BRANCH   4  35
HETATM   35  O   UNK     0     -47.919  -1.122  14.024  0.00  0.00    -0.390 OA
HETATM   36  H   UNK     0     -47.742  -1.786  13.335  0.00  0.00     0.210 HD
ENDBRANCH   4  35
BRANCH   2  37
HETATM   37  O   UNK     0     -45.694  -2.958  14.378  0.00  0.00    -0.390 OA
HETATM   38  H   UNK     0     -45.645  -3.759  14.926  0.00  0.00     0.210 HD
ENDBRANCH   2  37
TORSDOF 10
ENDMDL
MODEL 6
REMARK VINA RESULT:      -6.9      3.638      9.121
REMARK  10 active torsions:
REMARK  status: ('A' for Active; 'I' for Inactive)
REMARK    1  A    between atoms: O_2  and  C_15 
REMARK    2  A    between atoms: O_2  and  C_18 
REMARK    3  A    between atoms: O_3  and  C_12 
REMARK    4  A    between atoms: O_4  and  C_13 
REMARK    5  A    between atoms: O_5  and  C_14 
REMARK    6  A    between atoms: O_6  and  C_17 
REMARK    7  A    between atoms: O_9  and  C_20 
REMARK    8  A    between atoms: O_10  and  C_23 
REMARK    9  A    between atoms: C_16  and  C_17 
REMARK   10  A    between atoms: C_25  and  C_27 
ROOT
HETATM    1  O   UNK     0     -45.713   0.038  18.361  0.00  0.00    -0.340 OA
HETATM    2  C   UNK     0     -43.417  -0.209  20.071  0.00  0.00     0.183 C 
HETATM    3  C   UNK     0     -43.471  -0.835  18.678  0.00  0.00     0.205 C 
HETATM    4  C   UNK     0     -44.412   0.944  20.204  0.00  0.00     0.189 C 
HETATM    5  C   UNK     0     -44.912  -1.137  18.262  0.00  0.00     0.299 C 
HETATM    6  C   UNK     0     -45.788   0.531  19.694  0.00  0.00     0.253 C 
ENDROOT
BRANCH   5   7
HETATM    7  O   UNK     0     -44.893  -1.596  16.910  0.00  0.00    -0.315 OA
BRANCH   7   8
HETATM    8  C   UNK     0     -46.085  -2.007  16.389  0.00  0.00     0.110 A 
HETATM    9  C   UNK     0     -46.728  -3.113  16.944  0.00  0.00     0.078 A 
HETATM   10  C   UNK     0     -47.948  -3.543  16.418  0.00  0.00     0.096 A 
HETATM   11  O   UNK     0     -48.532  -4.636  17.005  0.00  0.00    -0.309 OA
HETATM   12  C   UNK     0     -48.518  -2.866  15.341  0.00  0.00     0.084 A 
HETATM   13  C   UNK     0     -49.748  -5.080  16.508  0.00  0.00     0.090 A 
HETATM   14  C   UNK     0     -50.394  -4.518  15.474  0.00  0.00     0.094 A 
HETATM   15  C   UNK     0     -49.803  -3.341  14.806  0.00  0.00     0.190 A 
HETATM   16  O   UNK     0     -50.360  -2.797  13.862  0.00  0.00    -0.287 OA
HETATM   17  C   UNK     0     -47.877  -1.758  14.783  0.00  0.00     0.118 A 
HETATM   18  C   UNK     0     -46.658  -1.331  15.311  0.00  0.00     0.134 A 
BRANCH  13  19
HETATM   19  C   UNK     0     -50.286  -6.265  17.209  0.00  0.00    -0.002 A 
HETATM   20  C   UNK     0     -51.626  -6.299  17.601  0.00  0.00     0.014 A 
HETATM   21  C   UNK     0     -52.134  -7.418  18.262  0.00  0.00     0.001 A 
HETATM   22  C   UNK     0     -51.304  -8.506  18.531  0.00  0.00     0.000 A 
HETATM   23  C   UNK     0     -49.965  -8.475  18.141  0.00  0.00     0.001 A 
HETATM   24  C   UNK     0     -49.457  -7.356  17.480  0.00  0.00     0.014 A 
ENDBRANCH  13  19
BRANCH  17  25
HETATM   25  O   UNK     0     -48.405  -1.072  13.730  0.00  0.00    -0.357 OA
HETATM   26  H   UNK     0     -48.614  -1.671  12.998  0.00  0.00     0.217 HD
ENDBRANCH  17  25
BRANCH  18  27
HETATM   27  O   UNK     0     -46.022  -0.250  14.774  0.00  0.00    -0.356 OA
HETATM   28  H   UNK     0     -45.374   0.080  15.421  0.00  0.00     0.218 HD
ENDBRANCH  18  27
ENDBRANCH   7   8
ENDBRANCH   5   7
BRANCH   6  29
HETATM   29  C   UNK     0     -46.691   1.715  19.572  0.00  0.00     0.172 C 
HETATM   30  O   UNK     0     -46.863   2.560  20.438  0.00  0.00    -0.648 OA
BRANCH  29  31
HETATM   31  O   UNK     0     -47.303   1.728  18.362  0.00  0.00    -0.774 OA
HETATM   32  H   UNK     0     -48.270   1.872  18.442  0.00  0.00     0.167 HD
ENDBRANCH  29  31
ENDBRANCH   6  29
BRANCH   3  33
HETATM   33  O   UNK     0     -42.740  -2.062  18.681  0.00  0.00    -0.388 OA
HETATM   34  H   UNK     0     -42.168  -2.062  19.466  0.00  0.00     0.210 HD
ENDBRANCH   3  33
BRANCH   4  35
HETATM   35  O   UNK     0     -44.524   1.308  21.578  0.00  0.00    -0.390 OA
HETATM   36  H   UNK     0     -44.747   2.254  21.622  0.00  0.00     0.210 HD
ENDBRANCH   4  35
BRANCH   2  37
HETATM   37  O   UNK     0     -42.107   0.309  20.310  0.00  0.00    -0.390 OA
HETATM   38  H   UNK     0     -41.666   0.404  19.450  0.00  0.00     0.210 HD
ENDBRANCH   2  37
TORSDOF 10
ENDMDL
MODEL 7
REMARK VINA RESULT:      -6.8      1.144      2.817
REMARK  10 active torsions:
REMARK  status: ('A' for Active; 'I' for Inactive)
REMARK    1  A    between atoms: O_2  and  C_15 
REMARK    2  A    between atoms: O_2  and  C_18 
REMARK    3  A    between atoms: O_3  and  C_12 
REMARK    4  A    between atoms: O_4  and  C_13 
REMARK    5  A    between atoms: O_5  and  C_14 
REMARK    6  A    between atoms: O_6  and  C_17 
REMARK    7  A    between atoms: O_9  and  C_20 
REMARK    8  A    between atoms: O_10  and  C_23 
REMARK    9  A    between atoms: C_16  and  C_17 
REMARK   10  A    between atoms: C_25  and  C_27 
ROOT
HETATM    1  O   UNK     0     -48.983  -0.964  16.621  0.00  0.00    -0.340 OA
HETATM    2  C   UNK     0     -48.393  -1.841  13.949  0.00  0.00     0.183 C 
HETATM    3  C   UNK     0     -47.630  -2.359  15.168  0.00  0.00     0.205 C 
HETATM    4  C   UNK     0     -49.763  -1.288  14.342  0.00  0.00     0.189 C 
HETATM    5  C   UNK     0     -47.644  -1.337  16.305  0.00  0.00     0.299 C 
HETATM    6  C   UNK     0     -49.642  -0.337  15.526  0.00  0.00     0.253 C 
ENDROOT
BRANCH   5   7
HETATM    7  O   UNK     0     -47.029  -1.938  17.446  0.00  0.00    -0.315 OA
BRANCH   7   8
HETATM    8  C   UNK     0     -46.761  -1.115  18.499  0.00  0.00     0.110 A 
HETATM    9  C   UNK     0     -45.583  -0.367  18.501  0.00  0.00     0.078 A 
HETATM   10  C   UNK     0     -45.300   0.479  19.574  0.00  0.00     0.096 A 
HETATM   11  O   UNK     0     -44.127   1.187  19.520  0.00  0.00    -0.309 OA
HETATM   12  C   UNK     0     -46.192   0.573  20.640  0.00  0.00     0.084 A 
HETATM   13  C   UNK     0     -43.822   2.041  20.569  0.00  0.00     0.090 A 
HETATM   14  C   UNK     0     -44.596   2.214  21.652  0.00  0.00     0.094 A 
HETATM   15  C   UNK     0     -45.867   1.471  21.759  0.00  0.00     0.190 A 
HETATM   16  O   UNK     0     -46.603   1.601  22.729  0.00  0.00    -0.287 OA
HETATM   17  C   UNK     0     -47.373  -0.174  20.643  0.00  0.00     0.118 A 
HETATM   18  C   UNK     0     -47.653  -1.018  19.568  0.00  0.00     0.134 A 
BRANCH  13  19
HETATM   19  C   UNK     0     -42.536   2.751  20.411  0.00  0.00    -0.002 A 
HETATM   20  C   UNK     0     -41.947   2.862  19.149  0.00  0.00     0.014 A 
HETATM   21  C   UNK     0     -40.733   3.533  19.000  0.00  0.00     0.001 A 
HETATM   22  C   UNK     0     -40.105   4.095  20.111  0.00  0.00     0.000 A 
HETATM   23  C   UNK     0     -40.690   3.986  21.372  0.00  0.00     0.001 A 
HETATM   24  C   UNK     0     -41.904   3.315  21.521  0.00  0.00     0.014 A 
ENDBRANCH  13  19
BRANCH  17  25
HETATM   25  O   UNK     0     -48.268  -0.106  21.668  0.00  0.00    -0.357 OA
HETATM   26  H   UNK     0     -48.878  -0.859  21.643  0.00  0.00     0.217 HD
ENDBRANCH  17  25
BRANCH  18  27
HETATM   27  O   UNK     0     -48.804  -1.753  19.559  0.00  0.00    -0.356 OA
HETATM   28  H   UNK     0     -48.746  -2.423  20.263  0.00  0.00     0.218 HD
ENDBRANCH  18  27
ENDBRANCH   7   8
ENDBRANCH   5   7
BRANCH   6  29
HETATM   29  C   UNK     0     -50.988  -0.002  16.083  0.00  0.00     0.172 C 
HETATM   30  O   UNK     0     -51.838   0.664  15.511  0.00  0.00    -0.648 OA
BRANCH  29  31
HETATM   31  O   UNK     0     -51.141  -0.536  17.319  0.00  0.00    -0.774 OA
HETATM   32  H   UNK     0     -51.996  -1.009  17.410  0.00  0.00     0.167 HD
ENDBRANCH  29  31
ENDBRANCH   6  29
BRANCH   3  33
HETATM   33  O   UNK     0     -46.271  -2.608  14.806  0.00  0.00    -0.388 OA
HETATM   34  H   UNK     0     -46.209  -3.532  14.512  0.00  0.00     0.210 HD
ENDBRANCH   3  33
BRANCH   4  35
HETATM   35  O   UNK     0     -50.313  -0.574  13.236  0.00  0.00    -0.390 OA
HETATM   36  H   UNK     0     -50.427  -1.200  12.500  0.00  0.00     0.210 HD
ENDBRANCH   4  35
BRANCH   2  37
HETATM   37  O   UNK     0     -48.596  -2.911  13.024  0.00  0.00    -0.390 OA
HETATM   38  H   UNK     0     -49.508  -2.847  12.695  0.00  0.00     0.210 HD
ENDBRANCH   2  37
TORSDOF 10
ENDMDL
MODEL 8
REMARK VINA RESULT:      -6.8      2.459      4.225
REMARK  10 active torsions:
REMARK  status: ('A' for Active; 'I' for Inactive)
REMARK    1  A    between atoms: O_2  and  C_15 
REMARK    2  A    between atoms: O_2  and  C_18 
REMARK    3  A    between atoms: O_3  and  C_12 
REMARK    4  A    between atoms: O_4  and  C_13 
REMARK    5  A    between atoms: O_5  and  C_14 
REMARK    6  A    between atoms: O_6  and  C_17 
REMARK    7  A    between atoms: O_9  and  C_20 
REMARK    8  A    between atoms: O_10  and  C_23 
REMARK    9  A    between atoms: C_16  and  C_17 
REMARK   10  A    between atoms: C_25  and  C_27 
ROOT
HETATM    1  O   UNK     0     -49.065  -0.993  16.658  0.00  0.00    -0.340 OA
HETATM    2  C   UNK     0     -48.400  -1.828  13.991  0.00  0.00     0.183 C 
HETATM    3  C   UNK     0     -47.708  -2.405  15.226  0.00  0.00     0.205 C 
HETATM    4  C   UNK     0     -49.763  -1.232  14.342  0.00  0.00     0.189 C 
HETATM    5  C   UNK     0     -47.730  -1.411  16.387  0.00  0.00     0.299 C 
HETATM    6  C   UNK     0     -49.655  -0.314  15.555  0.00  0.00     0.253 C 
ENDROOT
BRANCH   5   7
HETATM    7  O   UNK     0     -47.186  -2.062  17.535  0.00  0.00    -0.315 OA
BRANCH   7   8
HETATM    8  C   UNK     0     -46.208  -1.393  18.211  0.00  0.00     0.110 A 
HETATM    9  C   UNK     0     -46.561  -0.355  19.073  0.00  0.00     0.078 A 
HETATM   10  C   UNK     0     -45.568   0.336  19.770  0.00  0.00     0.096 A 
HETATM   11  O   UNK     0     -45.975   1.347  20.602  0.00  0.00    -0.309 OA
HETATM   12  C   UNK     0     -44.229  -0.013  19.602  0.00  0.00     0.084 A 
HETATM   13  C   UNK     0     -45.011   2.046  21.313  0.00  0.00     0.090 A 
HETATM   14  C   UNK     0     -43.693   1.809  21.233  0.00  0.00     0.094 A 
HETATM   15  C   UNK     0     -43.203   0.732  20.348  0.00  0.00     0.190 A 
HETATM   16  O   UNK     0     -42.009   0.482  20.247  0.00  0.00    -0.287 OA
HETATM   17  C   UNK     0     -43.872  -1.053  18.740  0.00  0.00     0.118 A 
HETATM   18  C   UNK     0     -44.867  -1.741  18.045  0.00  0.00     0.134 A 
BRANCH  13  19
HETATM   19  C   UNK     0     -45.558   3.115  22.174  0.00  0.00    -0.002 A 
HETATM   20  C   UNK     0     -46.927   3.394  22.161  0.00  0.00     0.014 A 
HETATM   21  C   UNK     0     -47.443   4.403  22.975  0.00  0.00     0.001 A 
HETATM   22  C   UNK     0     -46.593   5.135  23.804  0.00  0.00     0.000 A 
HETATM   23  C   UNK     0     -45.225   4.859  23.818  0.00  0.00     0.001 A 
HETATM   24  C   UNK     0     -44.709   3.850  23.005  0.00  0.00     0.014 A 
ENDBRANCH  13  19
BRANCH  17  25
HETATM   25  O   UNK     0     -42.573  -1.422  18.552  0.00  0.00    -0.357 OA
HETATM   26  H   UNK     0     -42.402  -1.615  17.618  0.00  0.00     0.217 HD
ENDBRANCH  17  25
BRANCH  18  27
HETATM   27  O   UNK     0     -44.530  -2.759  17.200  0.00  0.00    -0.356 OA
HETATM   28  H   UNK     0     -44.480  -2.403  16.295  0.00  0.00     0.218 HD
ENDBRANCH  18  27
ENDBRANCH   7   8
ENDBRANCH   5   7
BRANCH   6  29
HETATM   29  C   UNK     0     -51.008   0.060  16.065  0.00  0.00     0.172 C 
HETATM   30  O   UNK     0     -51.819   0.750  15.465  0.00  0.00    -0.648 OA
BRANCH  29  31
HETATM   31  O   UNK     0     -51.219  -0.469  17.295  0.00  0.00    -0.774 OA
HETATM   32  H   UNK     0     -51.487  -1.412  17.248  0.00  0.00     0.167 HD
ENDBRANCH  29  31
ENDBRANCH   6  29
BRANCH   3  33
HETATM   33  O   UNK     0     -46.346  -2.698  14.912  0.00  0.00    -0.388 OA
HETATM   34  H   UNK     0     -45.788  -2.113  15.450  0.00  0.00     0.210 HD
ENDBRANCH   3  33
BRANCH   4  35
HETATM   35  O   UNK     0     -50.239  -0.471  13.234  0.00  0.00    -0.390 OA
HETATM   36  H   UNK     0     -50.562  -1.092  12.558  0.00  0.00     0.210 HD
ENDBRANCH   4  35
BRANCH   2  37
HETATM   37  O   UNK     0     -48.606  -2.867  13.031  0.00  0.00    -0.390 OA
HETATM   38  H   UNK     0     -48.593  -3.714  13.507  0.00  0.00     0.210 HD
ENDBRANCH   2  37
TORSDOF 10
ENDMDL
MODEL 9
REMARK VINA RESULT:      -6.7      2.508      3.894
REMARK  10 active torsions:
REMARK  status: ('A' for Active; 'I' for Inactive)
REMARK    1  A    between atoms: O_2  and  C_15 
REMARK    2  A    between atoms: O_2  and  C_18 
REMARK    3  A    between atoms: O_3  and  C_12 
REMARK    4  A    between atoms: O_4  and  C_13 
REMARK    5  A    between atoms: O_5  and  C_14 
REMARK    6  A    between atoms: O_6  and  C_17 
REMARK    7  A    between atoms: O_9  and  C_20 
REMARK    8  A    between atoms: O_10  and  C_23 
REMARK    9  A    between atoms: C_16  and  C_17 
REMARK   10  A    between atoms: C_25  and  C_27 
ROOT
HETATM    1  O   UNK     0     -48.551  -2.636  15.940  0.00  0.00    -0.340 OA
HETATM    2  C   UNK     0     -51.099  -1.753  14.946  0.00  0.00     0.183 C 
HETATM    3  C   UNK     0     -49.793  -1.035  14.604  0.00  0.00     0.205 C 
HETATM    4  C   UNK     0     -50.846  -3.200  15.370  0.00  0.00     0.189 C 
HETATM    5  C   UNK     0     -48.744  -1.245  15.696  0.00  0.00     0.299 C 
HETATM    6  C   UNK     0     -49.735  -3.272  16.410  0.00  0.00     0.253 C 
ENDROOT
BRANCH   5   7
HETATM    7  O   UNK     0     -47.520  -0.659  15.250  0.00  0.00    -0.315 OA
BRANCH   7   8
HETATM    8  C   UNK     0     -46.500  -0.615  16.154  0.00  0.00     0.110 A 
HETATM    9  C   UNK     0     -46.601   0.231  17.258  0.00  0.00     0.078 A 
HETATM   10  C   UNK     0     -45.562   0.284  18.190  0.00  0.00     0.096 A 
HETATM   11  O   UNK     0     -45.719   1.134  19.254  0.00  0.00    -0.309 OA
HETATM   12  C   UNK     0     -44.428  -0.507  18.012  0.00  0.00     0.084 A 
HETATM   13  C   UNK     0     -44.706   1.203  20.199  0.00  0.00     0.090 A 
HETATM   14  C   UNK     0     -43.566   0.497  20.137  0.00  0.00     0.094 A 
HETATM   15  C   UNK     0     -43.348  -0.430  19.008  0.00  0.00     0.190 A 
HETATM   16  O   UNK     0     -42.324  -1.093  18.915  0.00  0.00    -0.287 OA
HETATM   17  C   UNK     0     -44.323  -1.355  16.908  0.00  0.00     0.118 A 
HETATM   18  C   UNK     0     -45.363  -1.406  15.979  0.00  0.00     0.134 A 
BRANCH  13  19
HETATM   19  C   UNK     0     -44.975   2.151  21.299  0.00  0.00    -0.002 A 
HETATM   20  C   UNK     0     -43.917   2.670  22.051  0.00  0.00     0.014 A 
HETATM   21  C   UNK     0     -44.171   3.567  23.089  0.00  0.00     0.001 A 
HETATM   22  C   UNK     0     -45.481   3.948  23.378  0.00  0.00     0.000 A 
HETATM   23  C   UNK     0     -46.539   3.432  22.629  0.00  0.00     0.001 A 
HETATM   24  C   UNK     0     -46.285   2.535  21.591  0.00  0.00     0.014 A 
ENDBRANCH  13  19
BRANCH  17  25
HETATM   25  O   UNK     0     -43.230  -2.142  16.703  0.00  0.00    -0.357 OA
HETATM   26  H   UNK     0     -42.432  -1.603  16.590  0.00  0.00     0.217 HD
ENDBRANCH  17  25
BRANCH  18  27
HETATM   27  O   UNK     0     -45.272  -2.231  14.895  0.00  0.00    -0.356 OA
HETATM   28  H   UNK     0     -44.508  -2.820  15.021  0.00  0.00     0.218 HD
ENDBRANCH  18  27
ENDBRANCH   7   8
ENDBRANCH   5   7
BRANCH   6  29
HETATM   29  C   UNK     0     -49.300  -4.684  16.632  0.00  0.00     0.172 C 
HETATM   30  O   UNK     0     -48.595  -5.065  17.555  0.00  0.00    -0.648 OA
BRANCH  29  31
HETATM   31  O   UNK     0     -49.794  -5.494  15.665  0.00  0.00    -0.774 OA
HETATM   32  H   UNK     0     -50.112  -4.987  14.888  0.00  0.00     0.167 HD
ENDBRANCH  29  31
ENDBRANCH   6  29
BRANCH   3  33
HETATM   33  O   UNK     0     -50.040   0.366  14.483  0.00  0.00    -0.388 OA
HETATM   34  H   UNK     0     -50.343   0.688  15.348  0.00  0.00     0.210 HD
ENDBRANCH   3  33
BRANCH   4  35
HETATM   35  O   UNK     0     -52.040  -3.735  15.937  0.00  0.00    -0.390 OA
HETATM   36  H   UNK     0     -52.754  -3.638  15.284  0.00  0.00     0.210 HD
ENDBRANCH   4  35
BRANCH   2  37
HETATM   37  O   UNK     0     -51.948  -1.771  13.797  0.00  0.00    -0.390 OA
HETATM   38  H   UNK     0     -51.859  -2.642  13.378  0.00  0.00     0.210 HD
ENDBRANCH   2  37
TORSDOF 10
ENDMDL
MODEL 10
REMARK VINA RESULT:      -6.7      2.571      4.997
REMARK  10 active torsions:
REMARK  status: ('A' for Active; 'I' for Inactive)
REMARK    1  A    between atoms: O_2  and  C_15 
REMARK    2  A    between atoms: O_2  and  C_18 
REMARK    3  A    between atoms: O_3  and  C_12 
REMARK    4  A    between atoms: O_4  and  C_13 
REMARK    5  A    between atoms: O_5  and  C_14 
REMARK    6  A    between atoms: O_6  and  C_17 
REMARK    7  A    between atoms: O_9  and  C_20 
REMARK    8  A    between atoms: O_10  and  C_23 
REMARK    9  A    between atoms: C_16  and  C_17 
REMARK   10  A    between atoms: C_25  and  C_27 
ROOT
HETATM    1  O   UNK     0     -51.534   1.275  15.541  0.00  0.00    -0.340 OA
HETATM    2  C   UNK     0     -53.778  -0.204  14.524  0.00  0.00     0.183 C 
HETATM    3  C   UNK     0     -52.892  -0.733  15.652  0.00  0.00     0.205 C 
HETATM    4  C   UNK     0     -53.684   1.317  14.406  0.00  0.00     0.189 C 
HETATM    5  C   UNK     0     -51.482  -0.149  15.568  0.00  0.00     0.299 C 
HETATM    6  C   UNK     0     -52.228   1.769  14.400  0.00  0.00     0.253 C 
ENDROOT
BRANCH   5   7
HETATM    7  O   UNK     0     -50.756  -0.583  16.719  0.00  0.00    -0.315 OA
BRANCH   7   8
HETATM    8  C   UNK     0     -49.407  -0.722  16.573  0.00  0.00     0.110 A 
HETATM    9  C   UNK     0     -48.552  -0.048  17.445  0.00  0.00     0.078 A 
HETATM   10  C   UNK     0     -47.170  -0.184  17.305  0.00  0.00     0.096 A 
HETATM   11  O   UNK     0     -46.380   0.504  18.190  0.00  0.00    -0.309 OA
HETATM   12  C   UNK     0     -46.649  -0.991  16.296  0.00  0.00     0.084 A 
HETATM   13  C   UNK     0     -45.003   0.383  18.080  0.00  0.00     0.090 A 
HETATM   14  C   UNK     0     -44.382  -0.359  17.149  0.00  0.00     0.094 A 
HETATM   15  C   UNK     0     -45.188  -1.115  16.170  0.00  0.00     0.190 A 
HETATM   16  O   UNK     0     -44.662  -1.804  15.307  0.00  0.00    -0.287 OA
HETATM   17  C   UNK     0     -47.501  -1.669  15.421  0.00  0.00     0.118 A 
HETATM   18  C   UNK     0     -48.882  -1.531  15.564  0.00  0.00     0.134 A 
BRANCH  13  19
HETATM   19  C   UNK     0     -44.250   1.167  19.079  0.00  0.00    -0.002 A 
HETATM   20  C   UNK     0     -44.765   1.345  20.366  0.00  0.00     0.014 A 
HETATM   21  C   UNK     0     -44.052   2.086  21.309  0.00  0.00     0.001 A 
HETATM   22  C   UNK     0     -42.823   2.650  20.970  0.00  0.00     0.000 A 
HETATM   23  C   UNK     0     -42.305   2.474  19.686  0.00  0.00     0.001 A 
HETATM   24  C   UNK     0     -43.018   1.734  18.743  0.00  0.00     0.014 A 
ENDBRANCH  13  19
BRANCH  17  25
HETATM   25  O   UNK     0     -47.027  -2.467  14.423  0.00  0.00    -0.357 OA
HETATM   26  H   UNK     0     -46.064  -2.390  14.349  0.00  0.00     0.217 HD
ENDBRANCH  17  25
BRANCH  18  27
HETATM   27  O   UNK     0     -49.726  -2.188  14.715  0.00  0.00    -0.356 OA
HETATM   28  H   UNK     0     -50.615  -2.196  15.110  0.00  0.00     0.218 HD
ENDBRANCH  18  27
ENDBRANCH   7   8
ENDBRANCH   5   7
BRANCH   6  29
HETATM   29  C   UNK     0     -52.128   3.252  14.554  0.00  0.00     0.172 C 
HETATM   30  O   UNK     0     -52.487   3.882  15.537  0.00  0.00    -0.648 OA
BRANCH  29  31
HETATM   31  O   UNK     0     -51.583   3.812  13.446  0.00  0.00    -0.774 OA
HETATM   32  H   UNK     0     -52.266   4.199  12.857  0.00  0.00     0.167 HD
ENDBRANCH  29  31
ENDBRANCH   6  29
BRANCH   3  33
HETATM   33  O   UNK     0     -52.796  -2.154  15.553  0.00  0.00    -0.388 OA
HETATM   34  H   UNK     0     -53.646  -2.528  15.837  0.00  0.00     0.210 HD
ENDBRANCH   3  33
BRANCH   4  35
HETATM   35  O   UNK     0     -54.296   1.730  13.186  0.00  0.00    -0.390 OA
HETATM   36  H   UNK     0     -55.104   1.204  13.062  0.00  0.00     0.210 HD
ENDBRANCH   4  35
BRANCH   2  37
HETATM   37  O   UNK     0     -55.140  -0.543  14.789  0.00  0.00    -0.390 OA
HETATM   38  H   UNK     0     -55.145  -1.222  15.484  0.00  0.00     0.210 HD
ENDBRANCH   2  37
TORSDOF 10
ENDMDL
