MODEL 1
REMARK VINA RESULT:      -6.4      0.000      0.000
REMARK  4 active torsions:
REMARK  status: ('A' for Active; 'I' for Inactive)
REMARK    1  A    between atoms: O_2  and  C_9 
REMARK    2  A    between atoms: O_3  and  C_11 
REMARK    3  A    between atoms: O_4  and  C_14 
REMARK    4  A    between atoms: C_8  and  C_13 
ROOT
HETATM    1  O   UNK     0     -44.259   0.217  17.797  0.00  0.00    -0.306 OA
HETATM    2  O   UNK     0     -47.777   1.736  19.182  0.00  0.00    -0.287 OA
HETATM    3  C   UNK     0     -46.688   0.216  17.737  0.00  0.00     0.084 A 
HETATM    4  C   UNK     0     -45.450  -0.260  17.309  0.00  0.00     0.129 A 
HETATM    5  C   UNK     0     -44.293   1.221  18.753  0.00  0.00     0.090 A 
HETATM    6  C   UNK     0     -45.385  -1.266  16.344  0.00  0.00     0.136 A 
HETATM    7  C   UNK     0     -46.727   1.273  18.758  0.00  0.00     0.190 A 
HETATM    8  C   UNK     0     -47.868  -0.308  17.206  0.00  0.00     0.085 A 
HETATM    9  C   UNK     0     -45.419   1.754  19.249  0.00  0.00     0.094 A 
HETATM   10  C   UNK     0     -46.562  -1.791  15.809  0.00  0.00     0.104 A 
HETATM   11  C   UNK     0     -47.801  -1.313  16.239  0.00  0.00     0.077 A 
ENDROOT
BRANCH   5  12
HETATM   12  C   UNK     0     -42.958   1.655  19.213  0.00  0.00    -0.002 A 
HETATM   13  C   UNK     0     -42.378   2.813  18.690  0.00  0.00     0.014 A 
HETATM   14  C   UNK     0     -41.118   3.224  19.124  0.00  0.00     0.001 A 
HETATM   15  C   UNK     0     -40.434   2.478  20.084  0.00  0.00     0.000 A 
HETATM   16  C   UNK     0     -41.010   1.322  20.610  0.00  0.00     0.001 A 
HETATM   17  C   UNK     0     -42.270   0.911  20.175  0.00  0.00     0.014 A 
ENDBRANCH   5  12
BRANCH   6  18
HETATM   18  O   UNK     0     -44.178  -1.737  15.919  0.00  0.00    -0.351 OA
HETATM   19  C   UNK     0     -43.846  -1.524  14.549  0.00  0.00     0.210 C 
ENDBRANCH   6  18
BRANCH   8  20
HETATM   20  O   UNK     0     -49.101   0.122  17.592  0.00  0.00    -0.360 OA
HETATM   21  H   UNK     0     -49.558   0.553  16.854  0.00  0.00     0.217 HD
ENDBRANCH   8  20
BRANCH  10  22
HETATM   22  O   UNK     0     -46.516  -2.772  14.865  0.00  0.00    -0.358 OA
HETATM   23  H   UNK     0     -47.389  -2.846  14.441  0.00  0.00     0.217 HD
ENDBRANCH  10  22
TORSDOF 4
ENDMDL
MODEL 2
REMARK VINA RESULT:      -6.4      2.840      4.552
REMARK  4 active torsions:
REMARK  status: ('A' for Active; 'I' for Inactive)
REMARK    1  A    between atoms: O_2  and  C_9 
REMARK    2  A    between atoms: O_3  and  C_11 
REMARK    3  A    between atoms: O_4  and  C_14 
REMARK    4  A    between atoms: C_8  and  C_13 
ROOT
HETATM    1  O   UNK     0     -47.028  -2.415  17.132  0.00  0.00    -0.306 OA
HETATM    2  O   UNK     0     -48.063  -0.263  13.831  0.00  0.00    -0.287 OA
HETATM    3  C   UNK     0     -48.540  -2.084  15.259  0.00  0.00     0.084 A 
HETATM    4  C   UNK     0     -48.131  -2.775  16.398  0.00  0.00     0.129 A 
HETATM    5  C   UNK     0     -46.287  -1.320  16.715  0.00  0.00     0.090 A 
HETATM    6  C   UNK     0     -48.854  -3.884  16.839  0.00  0.00     0.136 A 
HETATM    7  C   UNK     0     -47.761  -0.917  14.820  0.00  0.00     0.190 A 
HETATM    8  C   UNK     0     -49.671  -2.495  14.551  0.00  0.00     0.085 A 
HETATM    9  C   UNK     0     -46.583  -0.572  15.641  0.00  0.00     0.094 A 
HETATM   10  C   UNK     0     -49.985  -4.299  16.135  0.00  0.00     0.104 A 
HETATM   11  C   UNK     0     -50.392  -3.606  14.993  0.00  0.00     0.077 A 
ENDROOT
BRANCH   5  12
HETATM   12  C   UNK     0     -45.127  -1.017  17.578  0.00  0.00    -0.002 A 
HETATM   13  C   UNK     0     -44.272  -2.042  17.991  0.00  0.00     0.014 A 
HETATM   14  C   UNK     0     -43.177  -1.757  18.805  0.00  0.00     0.001 A 
HETATM   15  C   UNK     0     -42.932  -0.445  19.209  0.00  0.00     0.000 A 
HETATM   16  C   UNK     0     -43.782   0.582  18.799  0.00  0.00     0.001 A 
HETATM   17  C   UNK     0     -44.878   0.296  17.984  0.00  0.00     0.014 A 
ENDBRANCH   5  12
BRANCH   6  18
HETATM   18  O   UNK     0     -48.460  -4.565  17.953  0.00  0.00    -0.351 OA
HETATM   19  C   UNK     0     -47.971  -5.891  17.761  0.00  0.00     0.210 C 
ENDBRANCH   6  18
BRANCH   8  20
HETATM   20  O   UNK     0     -50.111  -1.854  13.434  0.00  0.00    -0.360 OA
HETATM   21  H   UNK     0     -50.329  -2.492  12.739  0.00  0.00     0.217 HD
ENDBRANCH   8  20
BRANCH  10  22
HETATM   22  O   UNK     0     -50.701  -5.380  16.550  0.00  0.00    -0.358 OA
HETATM   23  H   UNK     0     -51.527  -5.430  16.039  0.00  0.00     0.217 HD
ENDBRANCH  10  22
TORSDOF 4
ENDMDL
MODEL 3
REMARK VINA RESULT:      -6.2      1.325      3.583
REMARK  4 active torsions:
REMARK  status: ('A' for Active; 'I' for Inactive)
REMARK    1  A    between atoms: O_2  and  C_9 
REMARK    2  A    between atoms: O_3  and  C_11 
REMARK    3  A    between atoms: O_4  and  C_14 
REMARK    4  A    between atoms: C_8  and  C_13 
ROOT
HETATM    1  O   UNK     0     -46.043   0.204  17.982  0.00  0.00    -0.306 OA
HETATM    2  O   UNK     0     -45.017  -2.146  14.816  0.00  0.00    -0.287 OA
HETATM    3  C   UNK     0     -46.739  -1.131  16.076  0.00  0.00     0.084 A 
HETATM    4  C   UNK     0     -47.021  -0.320  17.173  0.00  0.00     0.129 A 
HETATM    5  C   UNK     0     -44.720  -0.096  17.696  0.00  0.00     0.090 A 
HETATM    6  C   UNK     0     -48.343  -0.005  17.489  0.00  0.00     0.136 A 
HETATM    7  C   UNK     0     -45.337  -1.443  15.765  0.00  0.00     0.190 A 
HETATM    8  C   UNK     0     -47.775  -1.636  15.287  0.00  0.00     0.085 A 
HETATM    9  C   UNK     0     -44.323  -0.858  16.666  0.00  0.00     0.094 A 
HETATM   10  C   UNK     0     -49.381  -0.508  16.703  0.00  0.00     0.104 A 
HETATM   11  C   UNK     0     -49.098  -1.321  15.604  0.00  0.00     0.077 A 
ENDROOT
BRANCH   5  12
HETATM   12  C   UNK     0     -43.751   0.522  18.625  0.00  0.00    -0.002 A 
HETATM   13  C   UNK     0     -43.391   1.864  18.473  0.00  0.00     0.014 A 
HETATM   14  C   UNK     0     -42.478   2.448  19.349  0.00  0.00     0.001 A 
HETATM   15  C   UNK     0     -41.920   1.692  20.381  0.00  0.00     0.000 A 
HETATM   16  C   UNK     0     -42.277   0.353  20.537  0.00  0.00     0.001 A 
HETATM   17  C   UNK     0     -43.191  -0.231  19.659  0.00  0.00     0.014 A 
ENDBRANCH   5  12
BRANCH   6  18
HETATM   18  O   UNK     0     -48.626   0.788  18.561  0.00  0.00    -0.351 OA
HETATM   19  C   UNK     0     -48.850   0.135  19.808  0.00  0.00     0.210 C 
ENDBRANCH   6  18
BRANCH   8  20
HETATM   20  O   UNK     0     -47.552  -2.431  14.204  0.00  0.00    -0.360 OA
HETATM   21  H   UNK     0     -47.617  -3.366  14.450  0.00  0.00     0.217 HD
ENDBRANCH   8  20
BRANCH  10  22
HETATM   22  O   UNK     0     -50.677  -0.212  16.998  0.00  0.00    -0.358 OA
HETATM   23  H   UNK     0     -50.698   0.505  17.656  0.00  0.00     0.217 HD
ENDBRANCH  10  22
TORSDOF 4
ENDMDL
MODEL 4
REMARK VINA RESULT:      -5.5      4.555      6.629
REMARK  4 active torsions:
REMARK  status: ('A' for Active; 'I' for Inactive)
REMARK    1  A    between atoms: O_2  and  C_9 
REMARK    2  A    between atoms: O_3  and  C_11 
REMARK    3  A    between atoms: O_4  and  C_14 
REMARK    4  A    between atoms: C_8  and  C_13 
ROOT
HETATM    1  O   UNK     0     -47.642  -4.513  17.427  0.00  0.00    -0.306 OA
HETATM    2  O   UNK     0     -50.916  -3.741  15.129  0.00  0.00    -0.287 OA
HETATM    3  C   UNK     0     -49.891  -5.127  16.745  0.00  0.00     0.084 A 
HETATM    4  C   UNK     0     -48.740  -5.333  17.503  0.00  0.00     0.129 A 
HETATM    5  C   UNK     0     -47.680  -3.438  16.552  0.00  0.00     0.090 A 
HETATM    6  C   UNK     0     -48.670  -6.409  18.388  0.00  0.00     0.136 A 
HETATM    7  C   UNK     0     -49.938  -3.983  15.823  0.00  0.00     0.190 A 
HETATM    8  C   UNK     0     -50.979  -5.994  16.864  0.00  0.00     0.085 A 
HETATM    9  C   UNK     0     -48.731  -3.133  15.776  0.00  0.00     0.094 A 
HETATM   10  C   UNK     0     -49.755  -7.278  18.510  0.00  0.00     0.104 A 
HETATM   11  C   UNK     0     -50.907  -7.071  17.749  0.00  0.00     0.077 A 
ENDROOT
BRANCH   5  12
HETATM   12  C   UNK     0     -46.450  -2.619  16.553  0.00  0.00    -0.002 A 
HETATM   13  C   UNK     0     -45.961  -2.085  15.359  0.00  0.00     0.014 A 
HETATM   14  C   UNK     0     -44.801  -1.311  15.360  0.00  0.00     0.001 A 
HETATM   15  C   UNK     0     -44.126  -1.069  16.557  0.00  0.00     0.000 A 
HETATM   16  C   UNK     0     -44.611  -1.601  17.752  0.00  0.00     0.001 A 
HETATM   17  C   UNK     0     -45.772  -2.375  17.750  0.00  0.00     0.014 A 
ENDBRANCH   5  12
BRANCH   6  18
HETATM   18  O   UNK     0     -47.548  -6.617  19.134  0.00  0.00    -0.351 OA
HETATM   19  C   UNK     0     -46.704  -7.700  18.746  0.00  0.00     0.210 C 
ENDBRANCH   6  18
BRANCH   8  20
HETATM   20  O   UNK     0     -52.125  -5.835  16.146  0.00  0.00    -0.360 OA
HETATM   21  H   UNK     0     -52.618  -6.668  16.104  0.00  0.00     0.217 HD
ENDBRANCH   8  20
BRANCH  10  22
HETATM   22  O   UNK     0     -49.703  -8.334  19.368  0.00  0.00    -0.358 OA
HETATM   23  H   UNK     0     -48.783  -8.646  19.432  0.00  0.00     0.217 HD
ENDBRANCH  10  22
TORSDOF 4
ENDMDL
MODEL 5
REMARK VINA RESULT:      -5.5     15.218     18.817
REMARK  4 active torsions:
REMARK  status: ('A' for Active; 'I' for Inactive)
REMARK    1  A    between atoms: O_2  and  C_9 
REMARK    2  A    between atoms: O_3  and  C_11 
REMARK    3  A    between atoms: O_4  and  C_14 
REMARK    4  A    between atoms: C_8  and  C_13 
ROOT
HETATM    1  O   UNK     0     -57.581  -1.493   5.523  0.00  0.00    -0.306 OA
HETATM    2  O   UNK     0     -60.794  -3.991   5.330  0.00  0.00    -0.287 OA
HETATM    3  C   UNK     0     -59.005  -3.132   6.613  0.00  0.00     0.084 A 
HETATM    4  C   UNK     0     -57.920  -2.258   6.611  0.00  0.00     0.129 A 
HETATM    5  C   UNK     0     -58.349  -1.605   4.374  0.00  0.00     0.090 A 
HETATM    6  C   UNK     0     -57.126  -2.128   7.751  0.00  0.00     0.136 A 
HETATM    7  C   UNK     0     -59.827  -3.246   5.399  0.00  0.00     0.190 A 
HETATM    8  C   UNK     0     -59.304  -3.885   7.750  0.00  0.00     0.085 A 
HETATM    9  C   UNK     0     -59.419  -2.405   4.255  0.00  0.00     0.094 A 
HETATM   10  C   UNK     0     -57.421  -2.879   8.890  0.00  0.00     0.104 A 
HETATM   11  C   UNK     0     -58.507  -3.755   8.889  0.00  0.00     0.077 A 
ENDROOT
BRANCH   5  12
HETATM   12  C   UNK     0     -57.901  -0.736   3.266  0.00  0.00    -0.002 A 
HETATM   13  C   UNK     0     -57.946  -1.197   1.949  0.00  0.00     0.014 A 
HETATM   14  C   UNK     0     -57.523  -0.378   0.903  0.00  0.00     0.001 A 
HETATM   15  C   UNK     0     -57.055   0.909   1.172  0.00  0.00     0.000 A 
HETATM   16  C   UNK     0     -57.008   1.374   2.486  0.00  0.00     0.001 A 
HETATM   17  C   UNK     0     -57.431   0.553   3.532  0.00  0.00     0.014 A 
ENDBRANCH   5  12
BRANCH   6  18
HETATM   18  O   UNK     0     -56.063  -1.274   7.758  0.00  0.00    -0.351 OA
HETATM   19  C   UNK     0     -56.301   0.051   8.227  0.00  0.00     0.210 C 
ENDBRANCH   6  18
BRANCH   8  20
HETATM   20  O   UNK     0     -60.352  -4.752   7.802  0.00  0.00    -0.360 OA
HETATM   21  H   UNK     0     -60.274  -5.423   7.108  0.00  0.00     0.217 HD
ENDBRANCH   8  20
BRANCH  10  22
HETATM   22  O   UNK     0     -56.655  -2.766  10.010  0.00  0.00    -0.358 OA
HETATM   23  H   UNK     0     -57.099  -2.172  10.640  0.00  0.00     0.217 HD
ENDBRANCH  10  22
TORSDOF 4
ENDMDL
MODEL 6
REMARK VINA RESULT:      -5.5     15.600     18.858
REMARK  4 active torsions:
REMARK  status: ('A' for Active; 'I' for Inactive)
REMARK    1  A    between atoms: O_2  and  C_9 
REMARK    2  A    between atoms: O_3  and  C_11 
REMARK    3  A    between atoms: O_4  and  C_14 
REMARK    4  A    between atoms: C_8  and  C_13 
ROOT
HETATM    1  O   UNK     0     -57.386  -0.598   5.112  0.00  0.00    -0.306 OA
HETATM    2  O   UNK     0     -59.579  -4.031   5.039  0.00  0.00    -0.287 OA
HETATM    3  C   UNK     0     -58.304  -2.501   6.311  0.00  0.00     0.084 A 
HETATM    4  C   UNK     0     -57.567  -1.319   6.266  0.00  0.00     0.129 A 
HETATM    5  C   UNK     0     -57.955  -1.073   3.941  0.00  0.00     0.090 A 
HETATM    6  C   UNK     0     -56.977  -0.820   7.428  0.00  0.00     0.136 A 
HETATM    7  C   UNK     0     -58.917  -3.002   5.072  0.00  0.00     0.190 A 
HETATM    8  C   UNK     0     -58.457  -3.193   7.514  0.00  0.00     0.085 A 
HETATM    9  C   UNK     0     -58.690  -2.192   3.858  0.00  0.00     0.094 A 
HETATM   10  C   UNK     0     -57.127  -1.508   8.632  0.00  0.00     0.104 A 
HETATM   11  C   UNK     0     -57.865  -2.692   8.675  0.00  0.00     0.077 A 
ENDROOT
BRANCH   5  12
HETATM   12  C   UNK     0     -57.703  -0.219   2.762  0.00  0.00    -0.002 A 
HETATM   13  C   UNK     0     -57.289   1.104   2.930  0.00  0.00     0.014 A 
HETATM   14  C   UNK     0     -57.050   1.911   1.818  0.00  0.00     0.001 A 
HETATM   15  C   UNK     0     -57.224   1.396   0.533  0.00  0.00     0.000 A 
HETATM   16  C   UNK     0     -57.637   0.075   0.361  0.00  0.00     0.001 A 
HETATM   17  C   UNK     0     -57.876  -0.732   1.474  0.00  0.00     0.014 A 
ENDBRANCH   5  12
BRANCH   6  18
HETATM   18  O   UNK     0     -56.255   0.336   7.392  0.00  0.00    -0.351 OA
HETATM   19  C   UNK     0     -56.963   1.549   7.640  0.00  0.00     0.210 C 
ENDBRANCH   6  18
BRANCH   8  20
HETATM   20  O   UNK     0     -59.167  -4.350   7.610  0.00  0.00    -0.360 OA
HETATM   21  H   UNK     0     -59.810  -4.416   6.889  0.00  0.00     0.217 HD
ENDBRANCH   8  20
BRANCH  10  22
HETATM   22  O   UNK     0     -56.557  -1.035   9.775  0.00  0.00    -0.358 OA
HETATM   23  H   UNK     0     -56.794  -1.621  10.515  0.00  0.00     0.217 HD
ENDBRANCH  10  22
TORSDOF 4
ENDMDL
MODEL 7
REMARK VINA RESULT:      -5.5      2.745      4.631
REMARK  4 active torsions:
REMARK  status: ('A' for Active; 'I' for Inactive)
REMARK    1  A    between atoms: O_2  and  C_9 
REMARK    2  A    between atoms: O_3  and  C_11 
REMARK    3  A    between atoms: O_4  and  C_14 
REMARK    4  A    between atoms: C_8  and  C_13 
ROOT
HETATM    1  O   UNK     0     -48.051   0.319  17.586  0.00  0.00    -0.306 OA
HETATM    2  O   UNK     0     -44.594  -1.446  16.346  0.00  0.00    -0.287 OA
HETATM    3  C   UNK     0     -46.929  -1.212  16.070  0.00  0.00     0.084 A 
HETATM    4  C   UNK     0     -48.074  -0.573  16.543  0.00  0.00     0.129 A 
HETATM    5  C   UNK     0     -46.836   0.587  18.199  0.00  0.00     0.090 A 
HETATM    6  C   UNK     0     -49.311  -0.827  15.950  0.00  0.00     0.136 A 
HETATM    7  C   UNK     0     -45.638  -0.923  16.711  0.00  0.00     0.190 A 
HETATM    8  C   UNK     0     -47.012  -2.110  15.003  0.00  0.00     0.085 A 
HETATM    9  C   UNK     0     -45.668   0.040  17.830  0.00  0.00     0.094 A 
HETATM   10  C   UNK     0     -49.398  -1.724  14.885  0.00  0.00     0.104 A 
HETATM   11  C   UNK     0     -48.251  -2.364  14.412  0.00  0.00     0.077 A 
ENDROOT
BRANCH   5  12
HETATM   12  C   UNK     0     -46.924   1.562  19.304  0.00  0.00    -0.002 A 
HETATM   13  C   UNK     0     -47.910   2.552  19.290  0.00  0.00     0.014 A 
HETATM   14  C   UNK     0     -47.994   3.473  20.333  0.00  0.00     0.001 A 
HETATM   15  C   UNK     0     -47.093   3.407  21.396  0.00  0.00     0.000 A 
HETATM   16  C   UNK     0     -46.107   2.420  21.415  0.00  0.00     0.001 A 
HETATM   17  C   UNK     0     -46.023   1.499  20.370  0.00  0.00     0.014 A 
ENDBRANCH   5  12
BRANCH   6  18
HETATM   18  O   UNK     0     -50.435  -0.205  16.407  0.00  0.00    -0.351 OA
HETATM   19  C   UNK     0     -51.191  -0.886  17.407  0.00  0.00     0.210 C 
ENDBRANCH   6  18
BRANCH   8  20
HETATM   20  O   UNK     0     -45.924  -2.759  14.505  0.00  0.00    -0.360 OA
HETATM   21  H   UNK     0     -46.088  -3.049  13.595  0.00  0.00     0.217 HD
ENDBRANCH   8  20
BRANCH  10  22
HETATM   22  O   UNK     0     -50.598  -1.984  14.296  0.00  0.00    -0.358 OA
HETATM   23  H   UNK     0     -51.072  -1.146  14.157  0.00  0.00     0.217 HD
ENDBRANCH  10  22
TORSDOF 4
ENDMDL
MODEL 8
REMARK VINA RESULT:      -5.3      2.339      4.861
REMARK  4 active torsions:
REMARK  status: ('A' for Active; 'I' for Inactive)
REMARK    1  A    between atoms: O_2  and  C_9 
REMARK    2  A    between atoms: O_3  and  C_11 
REMARK    3  A    between atoms: O_4  and  C_14 
REMARK    4  A    between atoms: C_8  and  C_13 
ROOT
HETATM    1  O   UNK     0     -47.191   0.642  17.989  0.00  0.00    -0.306 OA
HETATM    2  O   UNK     0     -50.189  -1.554  16.317  0.00  0.00    -0.287 OA
HETATM    3  C   UNK     0     -47.867  -1.150  16.494  0.00  0.00     0.084 A 
HETATM    4  C   UNK     0     -46.892  -0.362  17.102  0.00  0.00     0.129 A 
HETATM    5  C   UNK     0     -48.524   0.886  18.283  0.00  0.00     0.090 A 
HETATM    6  C   UNK     0     -45.543  -0.581  16.821  0.00  0.00     0.136 A 
HETATM    7  C   UNK     0     -49.281  -0.900  16.812  0.00  0.00     0.190 A 
HETATM    8  C   UNK     0     -47.504  -2.159  15.600  0.00  0.00     0.085 A 
HETATM    9  C   UNK     0     -49.551   0.193  17.768  0.00  0.00     0.094 A 
HETATM   10  C   UNK     0     -45.175  -1.588  15.928  0.00  0.00     0.104 A 
HETATM   11  C   UNK     0     -46.154  -2.376  15.319  0.00  0.00     0.077 A 
ENDROOT
BRANCH   5  12
HETATM   12  C   UNK     0     -48.733   1.983  19.251  0.00  0.00    -0.002 A 
HETATM   13  C   UNK     0     -47.698   2.877  19.532  0.00  0.00     0.014 A 
HETATM   14  C   UNK     0     -47.895   3.913  20.445  0.00  0.00     0.001 A 
HETATM   15  C   UNK     0     -49.129   4.058  21.079  0.00  0.00     0.000 A 
HETATM   16  C   UNK     0     -50.165   3.167  20.801  0.00  0.00     0.001 A 
HETATM   17  C   UNK     0     -49.968   2.131  19.888  0.00  0.00     0.014 A 
ENDBRANCH   5  12
BRANCH   6  18
HETATM   18  O   UNK     0     -44.582   0.185  17.413  0.00  0.00    -0.351 OA
HETATM   19  C   UNK     0     -44.005  -0.318  18.616  0.00  0.00     0.210 C 
ENDBRANCH   6  18
BRANCH   8  20
HETATM   20  O   UNK     0     -48.419  -2.955  14.981  0.00  0.00    -0.360 OA
HETATM   21  H   UNK     0     -48.430  -2.783  14.028  0.00  0.00     0.217 HD
ENDBRANCH   8  20
BRANCH  10  22
HETATM   22  O   UNK     0     -43.863  -1.814  15.641  0.00  0.00    -0.358 OA
HETATM   23  H   UNK     0     -43.791  -2.162  14.735  0.00  0.00     0.217 HD
ENDBRANCH  10  22
TORSDOF 4
ENDMDL
MODEL 9
REMARK VINA RESULT:      -5.3     14.128     17.824
REMARK  4 active torsions:
REMARK  status: ('A' for Active; 'I' for Inactive)
REMARK    1  A    between atoms: O_2  and  C_9 
REMARK    2  A    between atoms: O_3  and  C_11 
REMARK    3  A    between atoms: O_4  and  C_14 
REMARK    4  A    between atoms: C_8  and  C_13 
ROOT
HETATM    1  O   UNK     0     -57.067  -0.171   6.211  0.00  0.00    -0.306 OA
HETATM    2  O   UNK     0     -58.481  -3.751   7.547  0.00  0.00    -0.287 OA
HETATM    3  C   UNK     0     -57.384  -1.720   8.055  0.00  0.00     0.084 A 
HETATM    4  C   UNK     0     -56.925  -0.513   7.532  0.00  0.00     0.129 A 
HETATM    5  C   UNK     0     -57.688  -1.072   5.359  0.00  0.00     0.090 A 
HETATM    6  C   UNK     0     -56.291   0.411   8.364  0.00  0.00     0.136 A 
HETATM    7  C   UNK     0     -58.051  -2.674   7.157  0.00  0.00     0.190 A 
HETATM    8  C   UNK     0     -57.213  -2.015   9.409  0.00  0.00     0.085 A 
HETATM    9  C   UNK     0     -58.177  -2.261   5.744  0.00  0.00     0.094 A 
HETATM   10  C   UNK     0     -56.117   0.121   9.718  0.00  0.00     0.104 A 
HETATM   11  C   UNK     0     -56.577  -1.089  10.239  0.00  0.00     0.077 A 
ENDROOT
BRANCH   5  12
HETATM   12  C   UNK     0     -57.793  -0.603   3.963  0.00  0.00    -0.002 A 
HETATM   13  C   UNK     0     -58.259  -1.464   2.966  0.00  0.00     0.014 A 
HETATM   14  C   UNK     0     -58.359  -1.021   1.648  0.00  0.00     0.001 A 
HETATM   15  C   UNK     0     -57.994   0.285   1.321  0.00  0.00     0.000 A 
HETATM   16  C   UNK     0     -57.529   1.148   2.313  0.00  0.00     0.001 A 
HETATM   17  C   UNK     0     -57.428   0.704   3.632  0.00  0.00     0.014 A 
ENDBRANCH   5  12
BRANCH   6  18
HETATM   18  O   UNK     0     -55.839   1.595   7.860  0.00  0.00    -0.351 OA
HETATM   19  C   UNK     0     -56.740   2.700   7.899  0.00  0.00     0.210 C 
ENDBRANCH   6  18
BRANCH   8  20
HETATM   20  O   UNK     0     -57.644  -3.179   9.967  0.00  0.00    -0.360 OA
HETATM   21  H   UNK     0     -57.646  -3.891   9.310  0.00  0.00     0.217 HD
ENDBRANCH   8  20
BRANCH  10  22
HETATM   22  O   UNK     0     -55.499   1.011  10.542  0.00  0.00    -0.358 OA
HETATM   23  H   UNK     0     -56.147   1.677  10.834  0.00  0.00     0.217 HD
ENDBRANCH  10  22
TORSDOF 4
ENDMDL
MODEL 10
REMARK VINA RESULT:      -5.3      1.901      4.353
REMARK  4 active torsions:
REMARK  status: ('A' for Active; 'I' for Inactive)
REMARK    1  A    between atoms: O_2  and  C_9 
REMARK    2  A    between atoms: O_3  and  C_11 
REMARK    3  A    between atoms: O_4  and  C_14 
REMARK    4  A    between atoms: C_8  and  C_13 
ROOT
HETATM    1  O   UNK     0     -47.066   0.346  18.205  0.00  0.00    -0.306 OA
HETATM    2  O   UNK     0     -47.281  -1.922  14.828  0.00  0.00    -0.287 OA
HETATM    3  C   UNK     0     -48.430  -0.675  16.473  0.00  0.00     0.084 A 
HETATM    4  C   UNK     0     -48.285   0.093  17.627  0.00  0.00     0.129 A 
HETATM    5  C   UNK     0     -45.932  -0.194  17.618  0.00  0.00     0.090 A 
HETATM    6  C   UNK     0     -49.408   0.644  18.244  0.00  0.00     0.136 A 
HETATM    7  C   UNK     0     -47.228  -1.241  15.843  0.00  0.00     0.190 A 
HETATM    8  C   UNK     0     -49.696  -0.899  15.928  0.00  0.00     0.085 A 
HETATM    9  C   UNK     0     -45.942  -0.943  16.504  0.00  0.00     0.094 A 
HETATM   10  C   UNK     0     -50.676   0.423  17.703  0.00  0.00     0.104 A 
HETATM   11  C   UNK     0     -50.819  -0.347  16.547  0.00  0.00     0.077 A 
ENDROOT
BRANCH   5  12
HETATM   12  C   UNK     0     -44.676   0.144  18.317  0.00  0.00    -0.002 A 
HETATM   13  C   UNK     0     -43.770  -0.863  18.660  0.00  0.00     0.014 A 
HETATM   14  C   UNK     0     -42.584  -0.545  19.319  0.00  0.00     0.001 A 
HETATM   15  C   UNK     0     -42.298   0.783  19.637  0.00  0.00     0.000 A 
HETATM   16  C   UNK     0     -43.199   1.792  19.297  0.00  0.00     0.001 A 
HETATM   17  C   UNK     0     -44.386   1.472  18.637  0.00  0.00     0.014 A 
ENDBRANCH   5  12
BRANCH   6  18
HETATM   18  O   UNK     0     -49.275   1.397  19.373  0.00  0.00    -0.351 OA
HETATM   19  C   UNK     0     -49.361   0.713  20.621  0.00  0.00     0.210 C 
ENDBRANCH   6  18
BRANCH   8  20
HETATM   20  O   UNK     0     -49.889  -1.641  14.803  0.00  0.00    -0.360 OA
HETATM   21  H   UNK     0     -50.098  -2.559  15.032  0.00  0.00     0.217 HD
ENDBRANCH   8  20
BRANCH  10  22
HETATM   22  O   UNK     0     -51.782   0.953  18.294  0.00  0.00    -0.358 OA
HETATM   23  H   UNK     0     -51.505   1.608  18.957  0.00  0.00     0.217 HD
ENDBRANCH  10  22
TORSDOF 4
ENDMDL
