MODEL 1
REMARK VINA RESULT:      -6.4      0.000      0.000
REMARK  16 active torsions:
REMARK  status: ('A' for Active; 'I' for Inactive)
REMARK    1  A    between atoms: N_3  and  C_13 
REMARK    2  A    between atoms: C_6  and  C_37 
REMARK    3  A    between atoms: C_13  and  C_14 
REMARK    4  A    between atoms: C_13  and  C_17 
REMARK       I    between atoms: C_14  and  N_15 
REMARK    5  A    between atoms: N_15  and  C_16 
REMARK    6  A    between atoms: C_16  and  C_27 
REMARK    7  A    between atoms: C_16  and  C_28 
REMARK    8  A    between atoms: C_25  and  C_27 
REMARK    9  A    between atoms: C_28  and  C_29 
REMARK   10  A    between atoms: C_29  and  C_30 
REMARK   11  A    between atoms: C_29  and  O_36 
REMARK   12  A    between atoms: C_30  and  N_31 
REMARK   13  A    between atoms: C_30  and  C_37 
REMARK       I    between atoms: N_31  and  C_32 
REMARK   14  A    between atoms: C_32  and  C_33 
REMARK   15  A    between atoms: C_33  and  O_34 
REMARK   16  A    between atoms: O_34  and  C_35 
ROOT
HETATM    1  C   UNK     0     -49.162  -6.801  20.823  0.00  0.00     0.126 C 
HETATM    2  C   UNK     0     -50.151  -4.852  19.590  0.00  0.00     0.130 C 
HETATM    3  N   UNK     0     -49.452  -5.340  18.344  0.00  0.00    -0.320 N 
HETATM    4  C   UNK     0     -48.664  -6.483  18.359  0.00  0.00     0.319 C 
HETATM    5  N   UNK     0     -48.538  -7.162  19.535  0.00  0.00    -0.343 N 
HETATM    6  O   UNK     0     -48.090  -6.887  17.363  0.00  0.00    -0.247 OA
HETATM    7  C   UNK     0     -50.429  -5.961  20.627  0.00  0.00     0.040 C 
HETATM    8  H   UNK     0     -47.944  -7.987  19.445  0.00  0.00     0.164 HD
ENDROOT
BRANCH   3   9
HETATM    9  C   UNK     0     -49.599  -4.576  17.056  0.00  0.00     0.184 C 
BRANCH   9  10
HETATM   10  C   UNK     0     -48.869  -3.211  17.185  0.00  0.00     0.241 C 
HETATM   11  N   UNK     0     -48.639  -2.618  15.972  0.00  0.00    -0.354 N 
HETATM   12  H   UNK     0     -48.981  -3.165  15.182  0.00  0.00     0.162 HD
HETATM   13  O   UNK     0     -48.547  -2.749  18.281  0.00  0.00    -0.271 OA
BRANCH  11  14
HETATM   14  C   UNK     0     -47.966  -1.314  15.785  0.00  0.00     0.091 C 
BRANCH  14  15
HETATM   15  C   UNK     0     -46.446  -1.507  15.576  0.00  0.00     0.063 C 
BRANCH  15  16
HETATM   16  C   UNK     0     -45.528  -1.117  16.699  0.00  0.00    -0.056 A 
HETATM   17  C   UNK     0     -44.517  -2.012  17.143  0.00  0.00     0.007 A 
HETATM   18  C   UNK     0     -43.648  -1.656  18.198  0.00  0.00     0.001 A 
HETATM   19  C   UNK     0     -43.779  -0.394  18.823  0.00  0.00     0.000 A 
HETATM   20  C   UNK     0     -44.783   0.504  18.387  0.00  0.00     0.001 A 
HETATM   21  C   UNK     0     -45.652   0.143  17.330  0.00  0.00     0.007 A 
ENDBRANCH  15  16
ENDBRANCH  14  15
BRANCH  14  22
HETATM   22  C   UNK     0     -48.487  -0.583  14.528  0.00  0.00     0.059 C 
BRANCH  22  23
HETATM   23  C   UNK     0     -49.994  -0.578  14.214  0.00  0.00     0.143 C 
BRANCH  23  24
HETATM   24  C   UNK     0     -50.890   0.355  15.068  0.00  0.00     0.117 C 
BRANCH  24  25
HETATM   25  N   UNK     0     -51.756   1.132  14.152  0.00  0.00    -0.352 N 
HETATM   26  C   UNK     0     -52.220   2.395  14.420  0.00  0.00     0.242 C 
HETATM   27  O   UNK     0     -51.972   3.038  15.445  0.00  0.00    -0.271 OA
HETATM   28  H   UNK     0     -52.062   0.763  13.252  0.00  0.00     0.163 HD
BRANCH  26  29
HETATM   29  C   UNK     0     -53.127   2.988  13.324  0.00  0.00     0.278 C 
BRANCH  29  30
HETATM   30  O   UNK     0     -52.516   2.913  12.023  0.00  0.00    -0.341 OA
BRANCH  30  31
HETATM   31  C   UNK     0     -52.951   3.910  11.128  0.00  0.00     0.081 A 
HETATM   32  C   UNK     0     -52.283   5.180  11.026  0.00  0.00    -0.028 A 
HETATM   33  C   UNK     0     -52.769   6.144  10.103  0.00  0.00     0.009 A 
HETATM   34  C   UNK     0     -51.079   5.530  11.867  0.00  0.00     0.051 C 
HETATM   35  C   UNK     0     -53.889   5.869   9.289  0.00  0.00     0.001 A 
HETATM   36  C   UNK     0     -54.547   4.626   9.380  0.00  0.00     0.009 A 
HETATM   37  C   UNK     0     -54.092   3.642  10.289  0.00  0.00    -0.028 A 
HETATM   38  C   UNK     0     -54.810   2.337  10.357  0.00  0.00     0.051 C 
ENDBRANCH  30  31
ENDBRANCH  29  30
ENDBRANCH  26  29
ENDBRANCH  24  25
BRANCH  24  39
HETATM   39  C   UNK     0     -51.791  -0.474  16.030  0.00  0.00     0.066 C 
BRANCH  39  40
HETATM   40  C   UNK     0     -51.338  -0.479  17.477  0.00  0.00    -0.056 A 
HETATM   41  C   UNK     0     -50.286   0.375  17.891  0.00  0.00     0.007 A 
HETATM   42  C   UNK     0     -49.843   0.385  19.236  0.00  0.00     0.001 A 
HETATM   43  C   UNK     0     -50.448  -0.461  20.184  0.00  0.00     0.000 A 
HETATM   44  C   UNK     0     -51.499  -1.317  19.784  0.00  0.00     0.001 A 
HETATM   45  C   UNK     0     -51.941  -1.326  18.441  0.00  0.00     0.007 A 
ENDBRANCH  39  40
ENDBRANCH  24  39
ENDBRANCH  23  24
BRANCH  23  46
HETATM   46  O   UNK     0     -50.106  -0.152  12.877  0.00  0.00    -0.393 OA
HETATM   47  H   UNK     0     -49.317   0.346  12.696  0.00  0.00     0.210 HD
ENDBRANCH  23  46
ENDBRANCH  22  23
ENDBRANCH  14  22
ENDBRANCH  11  14
ENDBRANCH   9  10
BRANCH   9  48
HETATM   48  C   UNK     0     -51.113  -4.408  16.639  0.00  0.00     0.010 C 
HETATM   49  C   UNK     0     -51.302  -3.975  15.172  0.00  0.00     0.012 C 
HETATM   50  C   UNK     0     -51.896  -5.722  16.865  0.00  0.00     0.012 C 
ENDBRANCH   9  48
ENDBRANCH   3   9
TORSDOF 16
ENDMDL
MODEL 2
REMARK VINA RESULT:      -6.3      4.614      7.964
REMARK  16 active torsions:
REMARK  status: ('A' for Active; 'I' for Inactive)
REMARK    1  A    between atoms: N_3  and  C_13 
REMARK    2  A    between atoms: C_6  and  C_37 
REMARK    3  A    between atoms: C_13  and  C_14 
REMARK    4  A    between atoms: C_13  and  C_17 
REMARK       I    between atoms: C_14  and  N_15 
REMARK    5  A    between atoms: N_15  and  C_16 
REMARK    6  A    between atoms: C_16  and  C_27 
REMARK    7  A    between atoms: C_16  and  C_28 
REMARK    8  A    between atoms: C_25  and  C_27 
REMARK    9  A    between atoms: C_28  and  C_29 
REMARK   10  A    between atoms: C_29  and  C_30 
REMARK   11  A    between atoms: C_29  and  O_36 
REMARK   12  A    between atoms: C_30  and  N_31 
REMARK   13  A    between atoms: C_30  and  C_37 
REMARK       I    between atoms: N_31  and  C_32 
REMARK   14  A    between atoms: C_32  and  C_33 
REMARK   15  A    between atoms: C_33  and  O_34 
REMARK   16  A    between atoms: O_34  and  C_35 
ROOT
HETATM    1  C   UNK     0     -45.412   1.666  22.855  0.00  0.00     0.126 C 
HETATM    2  C   UNK     0     -47.652   1.875  21.744  0.00  0.00     0.130 C 
HETATM    3  N   UNK     0     -47.378   0.568  21.040  0.00  0.00    -0.320 N 
HETATM    4  C   UNK     0     -46.193  -0.126  21.243  0.00  0.00     0.319 C 
HETATM    5  N   UNK     0     -45.276   0.403  22.103  0.00  0.00    -0.343 N 
HETATM    6  O   UNK     0     -45.955  -1.180  20.679  0.00  0.00    -0.247 OA
HETATM    7  C   UNK     0     -46.882   2.046  23.070  0.00  0.00     0.040 C 
HETATM    8  H   UNK     0     -44.443  -0.179  22.188  0.00  0.00     0.164 HD
ENDROOT
BRANCH   3   9
HETATM    9  C   UNK     0     -48.399   0.000  20.092  0.00  0.00     0.184 C 
BRANCH   9  10
HETATM   10  C   UNK     0     -48.107   0.518  18.657  0.00  0.00     0.241 C 
HETATM   11  N   UNK     0     -47.550  -0.440  17.852  0.00  0.00    -0.354 N 
HETATM   12  H   UNK     0     -47.415  -1.335  18.322  0.00  0.00     0.162 HD
HETATM   13  O   UNK     0     -48.363   1.675  18.320  0.00  0.00    -0.271 OA
BRANCH  11  14
HETATM   14  C   UNK     0     -47.168  -0.235  16.437  0.00  0.00     0.091 C 
BRANCH  14  15
HETATM   15  C   UNK     0     -45.784  -0.861  16.148  0.00  0.00     0.063 C 
BRANCH  15  16
HETATM   16  C   UNK     0     -44.738  -0.778  17.223  0.00  0.00    -0.056 A 
HETATM   17  C   UNK     0     -44.102  -1.958  17.696  0.00  0.00     0.007 A 
HETATM   18  C   UNK     0     -43.116  -1.893  18.707  0.00  0.00     0.001 A 
HETATM   19  C   UNK     0     -42.755  -0.641  19.257  0.00  0.00     0.000 A 
HETATM   20  C   UNK     0     -43.383   0.539  18.791  0.00  0.00     0.001 A 
HETATM   21  C   UNK     0     -44.370   0.468  17.779  0.00  0.00     0.007 A 
ENDBRANCH  15  16
ENDBRANCH  14  15
BRANCH  14  22
HETATM   22  C   UNK     0     -48.164  -0.923  15.478  0.00  0.00     0.059 C 
BRANCH  22  23
HETATM   23  C   UNK     0     -48.081  -2.443  15.247  0.00  0.00     0.143 C 
BRANCH  23  24
HETATM   24  C   UNK     0     -49.381  -3.261  15.462  0.00  0.00     0.117 C 
BRANCH  24  25
HETATM   25  N   UNK     0     -49.031  -4.505  16.186  0.00  0.00    -0.352 N 
HETATM   26  C   UNK     0     -48.226  -4.548  17.295  0.00  0.00     0.242 C 
HETATM   27  O   UNK     0     -47.700  -3.565  17.828  0.00  0.00    -0.271 OA
HETATM   28  H   UNK     0     -49.378  -5.419  15.893  0.00  0.00     0.163 HD
BRANCH  26  29
HETATM   29  C   UNK     0     -47.987  -5.964  17.856  0.00  0.00     0.278 C 
BRANCH  29  30
HETATM   30  O   UNK     0     -48.665  -6.165  19.110  0.00  0.00    -0.341 OA
BRANCH  30  31
HETATM   31  C   UNK     0     -50.068  -6.202  19.002  0.00  0.00     0.081 A 
HETATM   32  C   UNK     0     -50.894  -5.129  19.487  0.00  0.00    -0.028 A 
HETATM   33  C   UNK     0     -52.305  -5.224  19.347  0.00  0.00     0.009 A 
HETATM   34  C   UNK     0     -50.316  -3.896  20.141  0.00  0.00     0.051 C 
HETATM   35  C   UNK     0     -52.898  -6.351  18.740  0.00  0.00     0.001 A 
HETATM   36  C   UNK     0     -52.098  -7.407  18.260  0.00  0.00     0.009 A 
HETATM   37  C   UNK     0     -50.689  -7.346  18.383  0.00  0.00    -0.028 A 
HETATM   38  C   UNK     0     -49.871  -8.479  17.861  0.00  0.00     0.051 C 
ENDBRANCH  30  31
ENDBRANCH  29  30
ENDBRANCH  26  29
ENDBRANCH  24  25
BRANCH  24  39
HETATM   39  C   UNK     0     -50.406  -2.455  16.313  0.00  0.00     0.066 C 
BRANCH  39  40
HETATM   40  C   UNK     0     -51.819  -3.004  16.290  0.00  0.00    -0.056 A 
HETATM   41  C   UNK     0     -52.135  -4.107  15.460  0.00  0.00     0.007 A 
HETATM   42  C   UNK     0     -53.449  -4.633  15.418  0.00  0.00     0.001 A 
HETATM   43  C   UNK     0     -54.464  -4.061  16.208  0.00  0.00     0.000 A 
HETATM   44  C   UNK     0     -54.161  -2.961  17.040  0.00  0.00     0.001 A 
HETATM   45  C   UNK     0     -52.848  -2.435  17.082  0.00  0.00     0.007 A 
ENDBRANCH  39  40
ENDBRANCH  24  39
ENDBRANCH  23  24
BRANCH  23  46
HETATM   46  O   UNK     0     -47.704  -2.608  13.902  0.00  0.00    -0.393 OA
HETATM   47  H   UNK     0     -48.509  -2.775  13.424  0.00  0.00     0.210 HD
ENDBRANCH  23  46
ENDBRANCH  22  23
ENDBRANCH  14  22
ENDBRANCH  11  14
ENDBRANCH   9  10
BRANCH   9  48
HETATM   48  C   UNK     0     -49.875   0.319  20.554  0.00  0.00     0.010 C 
HETATM   49  C   UNK     0     -50.939  -0.026  19.494  0.00  0.00     0.012 C 
HETATM   50  C   UNK     0     -50.220  -0.439  21.857  0.00  0.00     0.012 C 
ENDBRANCH   9  48
ENDBRANCH   3   9
TORSDOF 16
ENDMDL
MODEL 3
REMARK VINA RESULT:      -6.2      2.243      5.200
REMARK  16 active torsions:
REMARK  status: ('A' for Active; 'I' for Inactive)
REMARK    1  A    between atoms: N_3  and  C_13 
REMARK    2  A    between atoms: C_6  and  C_37 
REMARK    3  A    between atoms: C_13  and  C_14 
REMARK    4  A    between atoms: C_13  and  C_17 
REMARK       I    between atoms: C_14  and  N_15 
REMARK    5  A    between atoms: N_15  and  C_16 
REMARK    6  A    between atoms: C_16  and  C_27 
REMARK    7  A    between atoms: C_16  and  C_28 
REMARK    8  A    between atoms: C_25  and  C_27 
REMARK    9  A    between atoms: C_28  and  C_29 
REMARK   10  A    between atoms: C_29  and  C_30 
REMARK   11  A    between atoms: C_29  and  O_36 
REMARK   12  A    between atoms: C_30  and  N_31 
REMARK   13  A    between atoms: C_30  and  C_37 
REMARK       I    between atoms: N_31  and  C_32 
REMARK   14  A    between atoms: C_32  and  C_33 
REMARK   15  A    between atoms: C_33  and  O_34 
REMARK   16  A    between atoms: O_34  and  C_35 
ROOT
HETATM    1  C   UNK     0     -47.581   1.528  22.372  0.00  0.00     0.126 C 
HETATM    2  C   UNK     0     -46.106  -0.049  21.094  0.00  0.00     0.130 C 
HETATM    3  N   UNK     0     -46.413   0.742  19.846  0.00  0.00    -0.320 N 
HETATM    4  C   UNK     0     -47.252   1.848  19.881  0.00  0.00     0.319 C 
HETATM    5  N   UNK     0     -47.794   2.207  21.079  0.00  0.00    -0.343 N 
HETATM    6  O   UNK     0     -47.513   2.494  18.881  0.00  0.00    -0.247 OA
HETATM    7  C   UNK     0     -46.255   0.759  22.401  0.00  0.00     0.040 C 
HETATM    8  H   UNK     0     -48.391   3.031  21.004  0.00  0.00     0.164 HD
ENDROOT
BRANCH   3   9
HETATM    9  C   UNK     0     -45.810   0.330  18.531  0.00  0.00     0.184 C 
BRANCH   9  10
HETATM   10  C   UNK     0     -46.706  -0.757  17.876  0.00  0.00     0.241 C 
HETATM   11  N   UNK     0     -47.638  -0.229  17.022  0.00  0.00    -0.354 N 
HETATM   12  H   UNK     0     -47.595   0.788  16.955  0.00  0.00     0.162 HD
HETATM   13  O   UNK     0     -46.562  -1.955  18.126  0.00  0.00    -0.271 OA
BRANCH  11  14
HETATM   14  C   UNK     0     -48.624  -1.022  16.256  0.00  0.00     0.091 C 
BRANCH  14  15
HETATM   15  C   UNK     0     -49.711  -1.597  17.193  0.00  0.00     0.063 C 
BRANCH  15  16
HETATM   16  C   UNK     0     -49.729  -3.082  17.418  0.00  0.00    -0.056 A 
HETATM   17  C   UNK     0     -50.086  -3.609  18.689  0.00  0.00     0.007 A 
HETATM   18  C   UNK     0     -50.106  -5.005  18.913  0.00  0.00     0.001 A 
HETATM   19  C   UNK     0     -49.770  -5.891  17.863  0.00  0.00     0.000 A 
HETATM   20  C   UNK     0     -49.415  -5.374  16.594  0.00  0.00     0.001 A 
HETATM   21  C   UNK     0     -49.395  -3.976  16.375  0.00  0.00     0.007 A 
ENDBRANCH  15  16
ENDBRANCH  14  15
BRANCH  14  22
HETATM   22  C   UNK     0     -49.365  -0.152  15.216  0.00  0.00     0.059 C 
BRANCH  22  23
HETATM   23  C   UNK     0     -50.531  -0.749  14.408  0.00  0.00     0.143 C 
BRANCH  23  24
HETATM   24  C   UNK     0     -51.965  -0.335  14.827  0.00  0.00     0.117 C 
BRANCH  24  25
HETATM   25  N   UNK     0     -52.340   0.878  14.063  0.00  0.00    -0.352 N 
HETATM   26  C   UNK     0     -52.309   2.149  14.577  0.00  0.00     0.242 C 
HETATM   27  O   UNK     0     -51.963   2.441  15.727  0.00  0.00    -0.271 OA
HETATM   28  H   UNK     0     -52.648   0.833  13.092  0.00  0.00     0.163 HD
BRANCH  26  29
HETATM   29  C   UNK     0     -52.769   3.245  13.596  0.00  0.00     0.278 C 
BRANCH  29  30
HETATM   30  O   UNK     0     -52.402   2.939  12.238  0.00  0.00    -0.341 OA
BRANCH  30  31
HETATM   31  C   UNK     0     -52.897   3.856  11.291  0.00  0.00     0.081 A 
HETATM   32  C   UNK     0     -52.219   5.092  11.007  0.00  0.00    -0.028 A 
HETATM   33  C   UNK     0     -52.768   5.975  10.038  0.00  0.00     0.009 A 
HETATM   34  C   UNK     0     -50.938   5.490  11.701  0.00  0.00     0.051 C 
HETATM   35  C   UNK     0     -53.960   5.653   9.357  0.00  0.00     0.001 A 
HETATM   36  C   UNK     0     -54.630   4.442   9.626  0.00  0.00     0.009 A 
HETATM   37  C   UNK     0     -54.113   3.538  10.585  0.00  0.00    -0.028 A 
HETATM   38  C   UNK     0     -54.846   2.266  10.844  0.00  0.00     0.051 C 
ENDBRANCH  30  31
ENDBRANCH  29  30
ENDBRANCH  26  29
ENDBRANCH  24  25
BRANCH  24  39
HETATM   39  C   UNK     0     -52.983  -1.468  14.503  0.00  0.00     0.066 C 
BRANCH  39  40
HETATM   40  C   UNK     0     -53.143  -2.508  15.595  0.00  0.00    -0.056 A 
HETATM   41  C   UNK     0     -52.925  -3.877  15.304  0.00  0.00     0.007 A 
HETATM   42  C   UNK     0     -53.073  -4.867  16.306  0.00  0.00     0.001 A 
HETATM   43  C   UNK     0     -53.440  -4.497  17.614  0.00  0.00     0.000 A 
HETATM   44  C   UNK     0     -53.659  -3.135  17.917  0.00  0.00     0.001 A 
HETATM   45  C   UNK     0     -53.512  -2.146  16.916  0.00  0.00     0.007 A 
ENDBRANCH  39  40
ENDBRANCH  24  39
ENDBRANCH  23  24
BRANCH  23  46
HETATM   46  O   UNK     0     -50.343  -0.313  13.083  0.00  0.00    -0.393 OA
HETATM   47  H   UNK     0     -49.417  -0.116  13.003  0.00  0.00     0.210 HD
ENDBRANCH  23  46
ENDBRANCH  22  23
ENDBRANCH  14  22
ENDBRANCH  11  14
ENDBRANCH   9  10
BRANCH   9  48
HETATM   48  C   UNK     0     -44.312  -0.148  18.692  0.00  0.00     0.010 C 
HETATM   49  C   UNK     0     -43.788  -0.946  17.483  0.00  0.00     0.012 C 
HETATM   50  C   UNK     0     -43.373   1.058  18.927  0.00  0.00     0.012 C 
ENDBRANCH   9  48
ENDBRANCH   3   9
TORSDOF 16
ENDMDL
MODEL 4
REMARK VINA RESULT:      -6.2      2.124      4.954
REMARK  16 active torsions:
REMARK  status: ('A' for Active; 'I' for Inactive)
REMARK    1  A    between atoms: N_3  and  C_13 
REMARK    2  A    between atoms: C_6  and  C_37 
REMARK    3  A    between atoms: C_13  and  C_14 
REMARK    4  A    between atoms: C_13  and  C_17 
REMARK       I    between atoms: C_14  and  N_15 
REMARK    5  A    between atoms: N_15  and  C_16 
REMARK    6  A    between atoms: C_16  and  C_27 
REMARK    7  A    between atoms: C_16  and  C_28 
REMARK    8  A    between atoms: C_25  and  C_27 
REMARK    9  A    between atoms: C_28  and  C_29 
REMARK   10  A    between atoms: C_29  and  C_30 
REMARK   11  A    between atoms: C_29  and  O_36 
REMARK   12  A    between atoms: C_30  and  N_31 
REMARK   13  A    between atoms: C_30  and  C_37 
REMARK       I    between atoms: N_31  and  C_32 
REMARK   14  A    between atoms: C_32  and  C_33 
REMARK   15  A    between atoms: C_33  and  O_34 
REMARK   16  A    between atoms: O_34  and  C_35 
ROOT
HETATM    1  C   UNK     0     -42.284   1.059  19.594  0.00  0.00     0.126 C 
HETATM    2  C   UNK     0     -44.757   1.473  19.527  0.00  0.00     0.130 C 
HETATM    3  N   UNK     0     -44.948   0.025  19.147  0.00  0.00    -0.320 N 
HETATM    4  C   UNK     0     -43.864  -0.831  19.004  0.00  0.00     0.319 C 
HETATM    5  N   UNK     0     -42.615  -0.330  19.219  0.00  0.00    -0.343 N 
HETATM    6  O   UNK     0     -44.001  -2.002  18.694  0.00  0.00    -0.247 OA
HETATM    7  C   UNK     0     -43.453   1.752  20.303  0.00  0.00     0.040 C 
HETATM    8  H   UNK     0     -41.887  -1.034  19.094  0.00  0.00     0.164 HD
ENDROOT
BRANCH   3   9
HETATM    9  C   UNK     0     -46.333  -0.511  18.909  0.00  0.00     0.184 C 
BRANCH   9  10
HETATM   10  C   UNK     0     -46.620  -0.528  17.383  0.00  0.00     0.241 C 
HETATM   11  N   UNK     0     -47.607  -1.412  17.040  0.00  0.00    -0.354 N 
HETATM   12  H   UNK     0     -47.993  -1.917  17.837  0.00  0.00     0.162 HD
HETATM   13  O   UNK     0     -46.000   0.193  16.599  0.00  0.00    -0.271 OA
BRANCH  11  14
HETATM   14  C   UNK     0     -48.093  -1.641  15.661  0.00  0.00     0.091 C 
BRANCH  14  15
HETATM   15  C   UNK     0     -48.854  -2.984  15.565  0.00  0.00     0.063 C 
BRANCH  15  16
HETATM   16  C   UNK     0     -49.213  -3.680  16.847  0.00  0.00    -0.056 A 
HETATM   17  C   UNK     0     -48.887  -5.051  17.033  0.00  0.00     0.007 A 
HETATM   18  C   UNK     0     -49.220  -5.717  18.235  0.00  0.00     0.001 A 
HETATM   19  C   UNK     0     -49.883  -5.015  19.268  0.00  0.00     0.000 A 
HETATM   20  C   UNK     0     -50.210  -3.649  19.091  0.00  0.00     0.001 A 
HETATM   21  C   UNK     0     -49.876  -2.986  17.885  0.00  0.00     0.007 A 
ENDBRANCH  15  16
ENDBRANCH  14  15
BRANCH  14  22
HETATM   22  C   UNK     0     -49.091  -0.546  15.224  0.00  0.00     0.059 C 
BRANCH  22  23
HETATM   23  C   UNK     0     -50.239  -0.896  14.260  0.00  0.00     0.143 C 
BRANCH  23  24
HETATM   24  C   UNK     0     -51.684  -0.643  14.763  0.00  0.00     0.117 C 
BRANCH  24  25
HETATM   25  N   UNK     0     -52.179   0.607  14.141  0.00  0.00    -0.352 N 
HETATM   26  C   UNK     0     -52.183   1.827  14.767  0.00  0.00     0.242 C 
HETATM   27  O   UNK     0     -51.774   2.036  15.914  0.00  0.00    -0.271 OA
HETATM   28  H   UNK     0     -52.552   0.629  13.192  0.00  0.00     0.163 HD
BRANCH  26  29
HETATM   29  C   UNK     0     -52.773   2.975  13.925  0.00  0.00     0.278 C 
BRANCH  29  30
HETATM   30  O   UNK     0     -52.477   2.820  12.525  0.00  0.00    -0.341 OA
BRANCH  30  31
HETATM   31  C   UNK     0     -53.152   3.734  11.692  0.00  0.00     0.081 A 
HETATM   32  C   UNK     0     -52.571   4.999  11.330  0.00  0.00    -0.028 A 
HETATM   33  C   UNK     0     -53.301   5.878  10.485  0.00  0.00     0.009 A 
HETATM   34  C   UNK     0     -51.208   5.432  11.815  0.00  0.00     0.051 C 
HETATM   35  C   UNK     0     -54.578   5.523  10.000  0.00  0.00     0.001 A 
HETATM   36  C   UNK     0     -55.153   4.285  10.347  0.00  0.00     0.009 A 
HETATM   37  C   UNK     0     -54.456   3.384  11.188  0.00  0.00    -0.028 A 
HETATM   38  C   UNK     0     -55.093   2.081  11.533  0.00  0.00     0.051 C 
ENDBRANCH  30  31
ENDBRANCH  29  30
ENDBRANCH  26  29
ENDBRANCH  24  25
BRANCH  24  39
HETATM   39  C   UNK     0     -52.624  -1.815  14.354  0.00  0.00     0.066 C 
BRANCH  39  40
HETATM   40  C   UNK     0     -52.807  -2.882  15.416  0.00  0.00    -0.056 A 
HETATM   41  C   UNK     0     -53.396  -2.547  16.659  0.00  0.00     0.007 A 
HETATM   42  C   UNK     0     -53.572  -3.525  17.669  0.00  0.00     0.001 A 
HETATM   43  C   UNK     0     -53.160  -4.852  17.443  0.00  0.00     0.000 A 
HETATM   44  C   UNK     0     -52.572  -5.198  16.207  0.00  0.00     0.001 A 
HETATM   45  C   UNK     0     -52.395  -4.222  15.200  0.00  0.00     0.007 A 
ENDBRANCH  39  40
ENDBRANCH  24  39
ENDBRANCH  23  24
BRANCH  23  46
HETATM   46  O   UNK     0     -50.048  -0.088  13.124  0.00  0.00    -0.393 OA
HETATM   47  H   UNK     0     -49.222   0.362  13.262  0.00  0.00     0.210 HD
ENDBRANCH  23  46
ENDBRANCH  22  23
ENDBRANCH  14  22
ENDBRANCH  11  14
ENDBRANCH   9  10
BRANCH   9  48
HETATM   48  C   UNK     0     -47.425   0.299  19.714  0.00  0.00     0.010 C 
HETATM   49  C   UNK     0     -48.302   1.200  18.823  0.00  0.00     0.012 C 
HETATM   50  C   UNK     0     -48.349  -0.657  20.503  0.00  0.00     0.012 C 
ENDBRANCH   9  48
ENDBRANCH   3   9
TORSDOF 16
ENDMDL
MODEL 5
REMARK VINA RESULT:      -6.2      4.414      9.094
REMARK  16 active torsions:
REMARK  status: ('A' for Active; 'I' for Inactive)
REMARK    1  A    between atoms: N_3  and  C_13 
REMARK    2  A    between atoms: C_6  and  C_37 
REMARK    3  A    between atoms: C_13  and  C_14 
REMARK    4  A    between atoms: C_13  and  C_17 
REMARK       I    between atoms: C_14  and  N_15 
REMARK    5  A    between atoms: N_15  and  C_16 
REMARK    6  A    between atoms: C_16  and  C_27 
REMARK    7  A    between atoms: C_16  and  C_28 
REMARK    8  A    between atoms: C_25  and  C_27 
REMARK    9  A    between atoms: C_28  and  C_29 
REMARK   10  A    between atoms: C_29  and  C_30 
REMARK   11  A    between atoms: C_29  and  O_36 
REMARK   12  A    between atoms: C_30  and  N_31 
REMARK   13  A    between atoms: C_30  and  C_37 
REMARK       I    between atoms: N_31  and  C_32 
REMARK   14  A    between atoms: C_32  and  C_33 
REMARK   15  A    between atoms: C_33  and  O_34 
REMARK   16  A    between atoms: O_34  and  C_35 
ROOT
HETATM    1  C   UNK     0     -45.609   6.003  23.443  0.00  0.00     0.126 C 
HETATM    2  C   UNK     0     -47.491   5.436  21.882  0.00  0.00     0.130 C 
HETATM    3  N   UNK     0     -47.523   4.054  22.490  0.00  0.00    -0.320 N 
HETATM    4  C   UNK     0     -46.647   3.692  23.504  0.00  0.00     0.319 C 
HETATM    5  N   UNK     0     -45.751   4.621  23.944  0.00  0.00    -0.343 N 
HETATM    6  O   UNK     0     -46.657   2.580  24.002  0.00  0.00    -0.247 OA
HETATM    7  C   UNK     0     -46.910   6.518  22.816  0.00  0.00     0.040 C 
HETATM    8  H   UNK     0     -45.155   4.264  24.690  0.00  0.00     0.164 HD
ENDROOT
BRANCH   3   9
HETATM    9  C   UNK     0     -48.515   3.040  21.990  0.00  0.00     0.184 C 
BRANCH   9  10
HETATM   10  C   UNK     0     -47.818   2.106  20.963  0.00  0.00     0.241 C 
HETATM   11  N   UNK     0     -47.757   0.805  21.387  0.00  0.00    -0.354 N 
HETATM   12  H   UNK     0     -48.175   0.659  22.306  0.00  0.00     0.162 HD
HETATM   13  O   UNK     0     -47.378   2.532  19.893  0.00  0.00    -0.271 OA
BRANCH  11  14
HETATM   14  C   UNK     0     -47.153  -0.305  20.619  0.00  0.00     0.091 C 
BRANCH  14  15
HETATM   15  C   UNK     0     -47.609  -0.261  19.142  0.00  0.00     0.063 C 
BRANCH  15  16
HETATM   16  C   UNK     0     -49.022  -0.666  18.832  0.00  0.00    -0.056 A 
HETATM   17  C   UNK     0     -49.828   0.139  17.982  0.00  0.00     0.007 A 
HETATM   18  C   UNK     0     -51.159  -0.232  17.684  0.00  0.00     0.001 A 
HETATM   19  C   UNK     0     -51.699  -1.417  18.233  0.00  0.00     0.000 A 
HETATM   20  C   UNK     0     -50.903  -2.225  19.080  0.00  0.00     0.001 A 
HETATM   21  C   UNK     0     -49.571  -1.850  19.377  0.00  0.00     0.007 A 
ENDBRANCH  15  16
ENDBRANCH  14  15
BRANCH  14  22
HETATM   22  C   UNK     0     -45.612  -0.207  20.599  0.00  0.00     0.059 C 
BRANCH  22  23
HETATM   23  C   UNK     0     -44.812  -0.920  19.493  0.00  0.00     0.143 C 
BRANCH  23  24
HETATM   24  C   UNK     0     -44.260  -0.040  18.343  0.00  0.00     0.117 C 
BRANCH  24  25
HETATM   25  N   UNK     0     -45.183  -0.151  17.189  0.00  0.00    -0.352 N 
HETATM   26  C   UNK     0     -44.940  -0.922  16.082  0.00  0.00     0.242 C 
HETATM   27  O   UNK     0     -43.932  -1.617  15.910  0.00  0.00    -0.271 OA
HETATM   28  H   UNK     0     -46.071   0.350  17.156  0.00  0.00     0.163 HD
BRANCH  26  29
HETATM   29  C   UNK     0     -46.038  -0.855  15.002  0.00  0.00     0.278 C 
BRANCH  29  30
HETATM   30  O   UNK     0     -47.324  -0.539  15.565  0.00  0.00    -0.341 OA
BRANCH  30  31
HETATM   31  C   UNK     0     -48.299  -1.535  15.361  0.00  0.00     0.081 A 
HETATM   32  C   UNK     0     -48.224  -2.813  16.017  0.00  0.00    -0.028 A 
HETATM   33  C   UNK     0     -49.239  -3.776  15.771  0.00  0.00     0.009 A 
HETATM   34  C   UNK     0     -47.102  -3.172  16.962  0.00  0.00     0.051 C 
HETATM   35  C   UNK     0     -50.312  -3.493  14.900  0.00  0.00     0.001 A 
HETATM   36  C   UNK     0     -50.395  -2.242  14.256  0.00  0.00     0.009 A 
HETATM   37  C   UNK     0     -49.402  -1.259  14.476  0.00  0.00    -0.028 A 
HETATM   38  C   UNK     0     -49.522   0.054  13.780  0.00  0.00     0.051 C 
ENDBRANCH  30  31
ENDBRANCH  29  30
ENDBRANCH  26  29
ENDBRANCH  24  25
BRANCH  24  39
HETATM   39  C   UNK     0     -44.179   1.453  18.779  0.00  0.00     0.066 C 
BRANCH  39  40
HETATM   40  C   UNK     0     -42.792   1.924  19.171  0.00  0.00    -0.056 A 
HETATM   41  C   UNK     0     -42.232   3.066  18.547  0.00  0.00     0.007 A 
HETATM   42  C   UNK     0     -40.936   3.522  18.893  0.00  0.00     0.001 A 
HETATM   43  C   UNK     0     -40.186   2.840  19.869  0.00  0.00     0.000 A 
HETATM   44  C   UNK     0     -40.734   1.701  20.498  0.00  0.00     0.001 A 
HETATM   45  C   UNK     0     -42.028   1.245  20.153  0.00  0.00     0.007 A 
ENDBRANCH  39  40
ENDBRANCH  24  39
ENDBRANCH  23  24
BRANCH  23  46
HETATM   46  O   UNK     0     -43.706  -1.506  20.136  0.00  0.00    -0.393 OA
HETATM   47  H   UNK     0     -43.881  -2.440  20.154  0.00  0.00     0.210 HD
ENDBRANCH  23  46
ENDBRANCH  22  23
ENDBRANCH  14  22
ENDBRANCH  11  14
ENDBRANCH   9  10
BRANCH   9  48
HETATM   48  C   UNK     0     -49.809   3.723  21.395  0.00  0.00     0.010 C 
HETATM   49  C   UNK     0     -50.652   2.780  20.514  0.00  0.00     0.012 C 
HETATM   50  C   UNK     0     -50.710   4.272  22.525  0.00  0.00     0.012 C 
ENDBRANCH   9  48
ENDBRANCH   3   9
TORSDOF 16
ENDMDL
MODEL 6
REMARK VINA RESULT:      -6.1      2.604      4.701
REMARK  16 active torsions:
REMARK  status: ('A' for Active; 'I' for Inactive)
REMARK    1  A    between atoms: N_3  and  C_13 
REMARK    2  A    between atoms: C_6  and  C_37 
REMARK    3  A    between atoms: C_13  and  C_14 
REMARK    4  A    between atoms: C_13  and  C_17 
REMARK       I    between atoms: C_14  and  N_15 
REMARK    5  A    between atoms: N_15  and  C_16 
REMARK    6  A    between atoms: C_16  and  C_27 
REMARK    7  A    between atoms: C_16  and  C_28 
REMARK    8  A    between atoms: C_25  and  C_27 
REMARK    9  A    between atoms: C_28  and  C_29 
REMARK   10  A    between atoms: C_29  and  C_30 
REMARK   11  A    between atoms: C_29  and  O_36 
REMARK   12  A    between atoms: C_30  and  N_31 
REMARK   13  A    between atoms: C_30  and  C_37 
REMARK       I    between atoms: N_31  and  C_32 
REMARK   14  A    between atoms: C_32  and  C_33 
REMARK   15  A    between atoms: C_33  and  O_34 
REMARK   16  A    between atoms: O_34  and  C_35 
ROOT
HETATM    1  C   UNK     0     -47.327   2.066  22.265  0.00  0.00     0.126 C 
HETATM    2  C   UNK     0     -49.150   1.027  20.889  0.00  0.00     0.130 C 
HETATM    3  N   UNK     0     -48.196  -0.091  20.546  0.00  0.00    -0.320 N 
HETATM    4  C   UNK     0     -46.898  -0.108  21.038  0.00  0.00     0.319 C 
HETATM    5  N   UNK     0     -46.503   0.914  21.849  0.00  0.00    -0.343 N 
HETATM    6  O   UNK     0     -46.114  -1.002  20.767  0.00  0.00    -0.247 OA
HETATM    7  C   UNK     0     -48.825   1.743  22.217  0.00  0.00     0.040 C 
HETATM    8  H   UNK     0     -45.538   0.811  22.162  0.00  0.00     0.164 HD
ENDROOT
BRANCH   3   9
HETATM    9  C   UNK     0     -48.647  -1.210  19.647  0.00  0.00     0.184 C 
BRANCH   9  10
HETATM   10  C   UNK     0     -48.481  -0.774  18.165  0.00  0.00     0.241 C 
HETATM   11  N   UNK     0     -47.348  -1.283  17.588  0.00  0.00    -0.354 N 
HETATM   12  H   UNK     0     -46.796  -1.863  18.221  0.00  0.00     0.162 HD
HETATM   13  O   UNK     0     -49.303  -0.045  17.608  0.00  0.00    -0.271 OA
BRANCH  11  14
HETATM   14  C   UNK     0     -46.931  -1.040  16.190  0.00  0.00     0.091 C 
BRANCH  14  15
HETATM   15  C   UNK     0     -45.396  -1.160  16.047  0.00  0.00     0.063 C 
BRANCH  15  16
HETATM   16  C   UNK     0     -44.552  -0.824  17.244  0.00  0.00    -0.056 A 
HETATM   17  C   UNK     0     -44.491   0.512  17.726  0.00  0.00     0.007 A 
HETATM   18  C   UNK     0     -43.701   0.840  18.851  0.00  0.00     0.001 A 
HETATM   19  C   UNK     0     -42.962  -0.170  19.510  0.00  0.00     0.000 A 
HETATM   20  C   UNK     0     -43.018  -1.503  19.037  0.00  0.00     0.001 A 
HETATM   21  C   UNK     0     -43.810  -1.827  17.910  0.00  0.00     0.007 A 
ENDBRANCH  15  16
ENDBRANCH  14  15
BRANCH  14  22
HETATM   22  C   UNK     0     -47.538  -2.085  15.228  0.00  0.00     0.059 C 
BRANCH  22  23
HETATM   23  C   UNK     0     -48.899  -1.814  14.562  0.00  0.00     0.143 C 
BRANCH  23  24
HETATM   24  C   UNK     0     -50.142  -2.490  15.196  0.00  0.00     0.117 C 
BRANCH  24  25
HETATM   25  N   UNK     0     -51.355  -1.853  14.632  0.00  0.00    -0.352 N 
HETATM   26  C   UNK     0     -52.350  -1.291  15.389  0.00  0.00     0.242 C 
HETATM   27  O   UNK     0     -52.359  -1.240  16.623  0.00  0.00    -0.271 OA
HETATM   28  H   UNK     0     -51.519  -1.796  13.627  0.00  0.00     0.163 HD
BRANCH  26  29
HETATM   29  C   UNK     0     -53.524  -0.713  14.574  0.00  0.00     0.278 C 
BRANCH  29  30
HETATM   30  O   UNK     0     -54.087   0.455  15.198  0.00  0.00    -0.341 OA
BRANCH  30  31
HETATM   31  C   UNK     0     -53.782   1.660  14.537  0.00  0.00     0.081 A 
HETATM   32  C   UNK     0     -52.730   2.529  14.993  0.00  0.00    -0.028 A 
HETATM   33  C   UNK     0     -52.469   3.731  14.282  0.00  0.00     0.009 A 
HETATM   34  C   UNK     0     -51.886   2.210  16.204  0.00  0.00     0.051 C 
HETATM   35  C   UNK     0     -53.224   4.077  13.141  0.00  0.00     0.001 A 
HETATM   36  C   UNK     0     -54.255   3.231  12.685  0.00  0.00     0.009 A 
HETATM   37  C   UNK     0     -54.544   2.026  13.369  0.00  0.00    -0.028 A 
HETATM   38  C   UNK     0     -55.639   1.153  12.859  0.00  0.00     0.051 C 
ENDBRANCH  30  31
ENDBRANCH  29  30
ENDBRANCH  26  29
ENDBRANCH  24  25
BRANCH  24  39
HETATM   39  C   UNK     0     -50.172  -4.011  14.865  0.00  0.00     0.066 C 
BRANCH  39  40
HETATM   40  C   UNK     0     -50.091  -4.924  16.073  0.00  0.00    -0.056 A 
HETATM   41  C   UNK     0     -51.253  -5.585  16.538  0.00  0.00     0.007 A 
HETATM   42  C   UNK     0     -51.202  -6.439  17.668  0.00  0.00     0.001 A 
HETATM   43  C   UNK     0     -49.984  -6.642  18.344  0.00  0.00     0.000 A 
HETATM   44  C   UNK     0     -48.818  -5.989  17.888  0.00  0.00     0.001 A 
HETATM   45  C   UNK     0     -48.869  -5.136  16.761  0.00  0.00     0.007 A 
ENDBRANCH  39  40
ENDBRANCH  24  39
ENDBRANCH  23  24
BRANCH  23  46
HETATM   46  O   UNK     0     -49.096  -0.423  14.642  0.00  0.00    -0.393 OA
HETATM   47  H   UNK     0     -49.759  -0.216  13.992  0.00  0.00     0.210 HD
ENDBRANCH  23  46
ENDBRANCH  22  23
ENDBRANCH  14  22
ENDBRANCH  11  14
ENDBRANCH   9  10
BRANCH   9  48
HETATM   48  C   UNK     0     -50.122  -1.671  19.973  0.00  0.00     0.010 C 
HETATM   49  C   UNK     0     -50.627  -2.806  19.062  0.00  0.00     0.012 C 
HETATM   50  C   UNK     0     -50.242  -2.134  21.443  0.00  0.00     0.012 C 
ENDBRANCH   9  48
ENDBRANCH   3   9
TORSDOF 16
ENDMDL
MODEL 7
REMARK VINA RESULT:      -6.1      3.832      8.670
REMARK  16 active torsions:
REMARK  status: ('A' for Active; 'I' for Inactive)
REMARK    1  A    between atoms: N_3  and  C_13 
REMARK    2  A    between atoms: C_6  and  C_37 
REMARK    3  A    between atoms: C_13  and  C_14 
REMARK    4  A    between atoms: C_13  and  C_17 
REMARK       I    between atoms: C_14  and  N_15 
REMARK    5  A    between atoms: N_15  and  C_16 
REMARK    6  A    between atoms: C_16  and  C_27 
REMARK    7  A    between atoms: C_16  and  C_28 
REMARK    8  A    between atoms: C_25  and  C_27 
REMARK    9  A    between atoms: C_28  and  C_29 
REMARK   10  A    between atoms: C_29  and  C_30 
REMARK   11  A    between atoms: C_29  and  O_36 
REMARK   12  A    between atoms: C_30  and  N_31 
REMARK   13  A    between atoms: C_30  and  C_37 
REMARK       I    between atoms: N_31  and  C_32 
REMARK   14  A    between atoms: C_32  and  C_33 
REMARK   15  A    between atoms: C_33  and  O_34 
REMARK   16  A    between atoms: O_34  and  C_35 
ROOT
HETATM    1  C   UNK     0     -53.547  -1.856  14.921  0.00  0.00     0.126 C 
HETATM    2  C   UNK     0     -52.476  -1.141  17.074  0.00  0.00     0.130 C 
HETATM    3  N   UNK     0     -51.576  -0.229  16.275  0.00  0.00    -0.320 N 
HETATM    4  C   UNK     0     -51.671  -0.153  14.893  0.00  0.00     0.319 C 
HETATM    5  N   UNK     0     -52.606  -0.924  14.268  0.00  0.00    -0.343 N 
HETATM    6  O   UNK     0     -50.950   0.575  14.233  0.00  0.00    -0.247 OA
HETATM    7  C   UNK     0     -53.815  -1.466  16.380  0.00  0.00     0.040 C 
HETATM    8  H   UNK     0     -52.602  -0.796  13.256  0.00  0.00     0.164 HD
ENDROOT
BRANCH   3   9
HETATM    9  C   UNK     0     -50.547   0.612  16.980  0.00  0.00     0.184 C 
BRANCH   9  10
HETATM   10  C   UNK     0     -49.452  -0.314  17.577  0.00  0.00     0.241 C 
HETATM   11  N   UNK     0     -48.362  -0.440  16.757  0.00  0.00    -0.354 N 
HETATM   12  H   UNK     0     -48.444   0.090  15.889  0.00  0.00     0.162 HD
HETATM   13  O   UNK     0     -49.589  -0.858  18.674  0.00  0.00    -0.271 OA
BRANCH  11  14
HETATM   14  C   UNK     0     -47.165  -1.254  17.064  0.00  0.00     0.091 C 
BRANCH  14  15
HETATM   15  C   UNK     0     -47.079  -2.477  16.121  0.00  0.00     0.063 C 
BRANCH  15  16
HETATM   16  C   UNK     0     -48.280  -3.373  16.023  0.00  0.00    -0.056 A 
HETATM   17  C   UNK     0     -48.416  -4.487  16.896  0.00  0.00     0.007 A 
HETATM   18  C   UNK     0     -49.542  -5.337  16.813  0.00  0.00     0.001 A 
HETATM   19  C   UNK     0     -50.548  -5.081  15.853  0.00  0.00     0.000 A 
HETATM   20  C   UNK     0     -50.421  -3.974  14.981  0.00  0.00     0.001 A 
HETATM   21  C   UNK     0     -49.291  -3.125  15.066  0.00  0.00     0.007 A 
ENDBRANCH  15  16
ENDBRANCH  14  15
BRANCH  14  22
HETATM   22  C   UNK     0     -45.864  -0.450  16.851  0.00  0.00     0.059 C 
BRANCH  22  23
HETATM   23  C   UNK     0     -44.675  -0.649  17.808  0.00  0.00     0.143 C 
BRANCH  23  24
HETATM   24  C   UNK     0     -44.492   0.401  18.934  0.00  0.00     0.117 C 
BRANCH  24  25
HETATM   25  N   UNK     0     -45.632   0.279  19.872  0.00  0.00    -0.352 N 
HETATM   26  C   UNK     0     -46.643   1.199  19.976  0.00  0.00     0.242 C 
HETATM   27  O   UNK     0     -46.733   2.233  19.304  0.00  0.00    -0.271 OA
HETATM   28  H   UNK     0     -45.730  -0.514  20.505  0.00  0.00     0.163 HD
BRANCH  26  29
HETATM   29  C   UNK     0     -47.704   0.865  21.042  0.00  0.00     0.278 C 
BRANCH  29  30
HETATM   30  O   UNK     0     -47.733   1.846  22.096  0.00  0.00    -0.341 OA
BRANCH  30  31
HETATM   31  C   UNK     0     -48.929   2.587  22.156  0.00  0.00     0.081 A 
HETATM   32  C   UNK     0     -50.187   1.969  22.478  0.00  0.00    -0.028 A 
HETATM   33  C   UNK     0     -51.359   2.770  22.525  0.00  0.00     0.009 A 
HETATM   34  C   UNK     0     -50.312   0.492  22.770  0.00  0.00     0.051 C 
HETATM   35  C   UNK     0     -51.301   4.155  22.264  0.00  0.00     0.001 A 
HETATM   36  C   UNK     0     -50.072   4.771  21.951  0.00  0.00     0.009 A 
HETATM   37  C   UNK     0     -48.884   4.003  21.894  0.00  0.00    -0.028 A 
HETATM   38  C   UNK     0     -47.601   4.686  21.563  0.00  0.00     0.051 C 
ENDBRANCH  30  31
ENDBRANCH  29  30
ENDBRANCH  26  29
ENDBRANCH  24  25
BRANCH  24  39
HETATM   39  C   UNK     0     -43.169   0.148  19.715  0.00  0.00     0.066 C 
BRANCH  39  40
HETATM   40  C   UNK     0     -42.196   1.312  19.709  0.00  0.00    -0.056 A 
HETATM   41  C   UNK     0     -41.108   1.328  20.614  0.00  0.00     0.007 A 
HETATM   42  C   UNK     0     -40.190   2.407  20.630  0.00  0.00     0.001 A 
HETATM   43  C   UNK     0     -40.351   3.483  19.737  0.00  0.00     0.000 A 
HETATM   44  C   UNK     0     -41.432   3.477  18.828  0.00  0.00     0.001 A 
HETATM   45  C   UNK     0     -42.349   2.401  18.813  0.00  0.00     0.007 A 
ENDBRANCH  39  40
ENDBRANCH  24  39
ENDBRANCH  23  24
BRANCH  23  46
HETATM   46  O   UNK     0     -44.886  -1.893  18.431  0.00  0.00    -0.393 OA
HETATM   47  H   UNK     0     -45.829  -2.013  18.458  0.00  0.00     0.210 HD
ENDBRANCH  23  46
ENDBRANCH  22  23
ENDBRANCH  14  22
ENDBRANCH  11  14
ENDBRANCH   9  10
BRANCH   9  48
HETATM   48  C   UNK     0     -51.198   1.549  18.072  0.00  0.00     0.010 C 
HETATM   49  C   UNK     0     -50.194   2.512  18.734  0.00  0.00     0.012 C 
HETATM   50  C   UNK     0     -52.349   2.384  17.465  0.00  0.00     0.012 C 
ENDBRANCH   9  48
ENDBRANCH   3   9
TORSDOF 16
ENDMDL
MODEL 8
REMARK VINA RESULT:      -6.0      3.702      6.752
REMARK  16 active torsions:
REMARK  status: ('A' for Active; 'I' for Inactive)
REMARK    1  A    between atoms: N_3  and  C_13 
REMARK    2  A    between atoms: C_6  and  C_37 
REMARK    3  A    between atoms: C_13  and  C_14 
REMARK    4  A    between atoms: C_13  and  C_17 
REMARK       I    between atoms: C_14  and  N_15 
REMARK    5  A    between atoms: N_15  and  C_16 
REMARK    6  A    between atoms: C_16  and  C_27 
REMARK    7  A    between atoms: C_16  and  C_28 
REMARK    8  A    between atoms: C_25  and  C_27 
REMARK    9  A    between atoms: C_28  and  C_29 
REMARK   10  A    between atoms: C_29  and  C_30 
REMARK   11  A    between atoms: C_29  and  O_36 
REMARK   12  A    between atoms: C_30  and  N_31 
REMARK   13  A    between atoms: C_30  and  C_37 
REMARK       I    between atoms: N_31  and  C_32 
REMARK   14  A    between atoms: C_32  and  C_33 
REMARK   15  A    between atoms: C_33  and  O_34 
REMARK   16  A    between atoms: O_34  and  C_35 
ROOT
HETATM    1  C   UNK     0     -51.651  -0.279  20.793  0.00  0.00     0.126 C 
HETATM    2  C   UNK     0     -49.159  -0.522  20.629  0.00  0.00     0.130 C 
HETATM    3  N   UNK     0     -49.041   0.967  20.847  0.00  0.00    -0.320 N 
HETATM    4  C   UNK     0     -50.167   1.761  21.022  0.00  0.00     0.319 C 
HETATM    5  N   UNK     0     -51.390   1.160  20.996  0.00  0.00    -0.343 N 
HETATM    6  O   UNK     0     -50.089   2.965  21.196  0.00  0.00    -0.247 OA
HETATM    7  C   UNK     0     -50.451  -1.140  21.204  0.00  0.00     0.040 C 
HETATM    8  H   UNK     0     -52.152   1.823  21.137  0.00  0.00     0.164 HD
ENDROOT
BRANCH   3   9
HETATM    9  C   UNK     0     -47.684   1.616  20.870  0.00  0.00     0.184 C 
BRANCH   9  10
HETATM   10  C   UNK     0     -46.927   1.263  19.560  0.00  0.00     0.241 C 
HETATM   11  N   UNK     0     -45.799   0.520  19.786  0.00  0.00    -0.354 N 
HETATM   12  H   UNK     0     -45.636   0.320  20.772  0.00  0.00     0.162 HD
HETATM   13  O   UNK     0     -47.332   1.633  18.457  0.00  0.00    -0.271 OA
BRANCH  11  14
HETATM   14  C   UNK     0     -44.883   0.037  18.729  0.00  0.00     0.091 C 
BRANCH  14  15
HETATM   15  C   UNK     0     -43.472  -0.225  19.307  0.00  0.00     0.063 C 
BRANCH  15  16
HETATM   16  C   UNK     0     -42.543   0.947  19.449  0.00  0.00    -0.056 A 
HETATM   17  C   UNK     0     -42.711   2.097  18.629  0.00  0.00     0.007 A 
HETATM   18  C   UNK     0     -41.843   3.206  18.754  0.00  0.00     0.001 A 
HETATM   19  C   UNK     0     -40.796   3.177  19.704  0.00  0.00     0.000 A 
HETATM   20  C   UNK     0     -40.623   2.036  20.524  0.00  0.00     0.001 A 
HETATM   21  C   UNK     0     -41.494   0.927  20.396  0.00  0.00     0.007 A 
ENDBRANCH  15  16
ENDBRANCH  14  15
BRANCH  14  22
HETATM   22  C   UNK     0     -45.363  -1.305  18.134  0.00  0.00     0.059 C 
BRANCH  22  23
HETATM   23  C   UNK     0     -46.157  -1.317  16.815  0.00  0.00     0.143 C 
BRANCH  23  24
HETATM   24  C   UNK     0     -47.589  -1.911  16.859  0.00  0.00     0.117 C 
BRANCH  24  25
HETATM   25  N   UNK     0     -48.350  -1.372  15.708  0.00  0.00    -0.352 N 
HETATM   26  C   UNK     0     -49.464  -0.582  15.827  0.00  0.00     0.242 C 
HETATM   27  O   UNK     0     -49.966  -0.219  16.896  0.00  0.00    -0.271 OA
HETATM   28  H   UNK     0     -48.081  -1.562  14.743  0.00  0.00     0.163 HD
BRANCH  26  29
HETATM   29  C   UNK     0     -50.098  -0.166  14.485  0.00  0.00     0.278 C 
BRANCH  29  30
HETATM   30  O   UNK     0     -50.709  -1.282  13.811  0.00  0.00    -0.341 OA
BRANCH  30  31
HETATM   31  C   UNK     0     -51.609  -2.011  14.612  0.00  0.00     0.081 A 
HETATM   32  C   UNK     0     -51.396  -3.400  14.917  0.00  0.00    -0.028 A 
HETATM   33  C   UNK     0     -52.340  -4.081  15.733  0.00  0.00     0.009 A 
HETATM   34  C   UNK     0     -50.201  -4.168  14.403  0.00  0.00     0.051 C 
HETATM   35  C   UNK     0     -53.472  -3.412  16.243  0.00  0.00     0.001 A 
HETATM   36  C   UNK     0     -53.688  -2.050  15.952  0.00  0.00     0.009 A 
HETATM   37  C   UNK     0     -52.769  -1.340  15.142  0.00  0.00    -0.028 A 
HETATM   38  C   UNK     0     -53.026   0.100  14.855  0.00  0.00     0.051 C 
ENDBRANCH  30  31
ENDBRANCH  29  30
ENDBRANCH  26  29
ENDBRANCH  24  25
BRANCH  24  39
HETATM   39  C   UNK     0     -47.546  -3.464  16.751  0.00  0.00     0.066 C 
BRANCH  39  40
HETATM   40  C   UNK     0     -48.663  -4.181  17.485  0.00  0.00    -0.056 A 
HETATM   41  C   UNK     0     -48.796  -5.586  17.368  0.00  0.00     0.007 A 
HETATM   42  C   UNK     0     -49.835  -6.277  18.040  0.00  0.00     0.001 A 
HETATM   43  C   UNK     0     -50.751  -5.567  18.839  0.00  0.00     0.000 A 
HETATM   44  C   UNK     0     -50.627  -4.166  18.964  0.00  0.00     0.001 A 
HETATM   45  C   UNK     0     -49.591  -3.476  18.293  0.00  0.00     0.007 A 
ENDBRANCH  39  40
ENDBRANCH  24  39
ENDBRANCH  23  24
BRANCH  23  46
HETATM   46  O   UNK     0     -46.277   0.030  16.426  0.00  0.00    -0.393 OA
HETATM   47  H   UNK     0     -46.957   0.049  15.761  0.00  0.00     0.210 HD
ENDBRANCH  23  46
ENDBRANCH  22  23
ENDBRANCH  14  22
ENDBRANCH  11  14
ENDBRANCH   9  10
BRANCH   9  48
HETATM   48  C   UNK     0     -46.863   1.221  22.161  0.00  0.00     0.010 C 
HETATM   49  C   UNK     0     -45.815   2.274  22.568  0.00  0.00     0.012 C 
HETATM   50  C   UNK     0     -47.807   0.981  23.361  0.00  0.00     0.012 C 
ENDBRANCH   9  48
ENDBRANCH   3   9
TORSDOF 16
ENDMDL
MODEL 9
REMARK VINA RESULT:      -6.0      4.249      6.982
REMARK  16 active torsions:
REMARK  status: ('A' for Active; 'I' for Inactive)
REMARK    1  A    between atoms: N_3  and  C_13 
REMARK    2  A    between atoms: C_6  and  C_37 
REMARK    3  A    between atoms: C_13  and  C_14 
REMARK    4  A    between atoms: C_13  and  C_17 
REMARK       I    between atoms: C_14  and  N_15 
REMARK    5  A    between atoms: N_15  and  C_16 
REMARK    6  A    between atoms: C_16  and  C_27 
REMARK    7  A    between atoms: C_16  and  C_28 
REMARK    8  A    between atoms: C_25  and  C_27 
REMARK    9  A    between atoms: C_28  and  C_29 
REMARK   10  A    between atoms: C_29  and  C_30 
REMARK   11  A    between atoms: C_29  and  O_36 
REMARK   12  A    between atoms: C_30  and  N_31 
REMARK   13  A    between atoms: C_30  and  C_37 
REMARK       I    between atoms: N_31  and  C_32 
REMARK   14  A    between atoms: C_32  and  C_33 
REMARK   15  A    between atoms: C_33  and  O_34 
REMARK   16  A    between atoms: O_34  and  C_35 
ROOT
HETATM    1  C   UNK     0     -47.109  -0.699  24.987  0.00  0.00     0.126 C 
HETATM    2  C   UNK     0     -47.454   1.431  23.706  0.00  0.00     0.130 C 
HETATM    3  N   UNK     0     -47.502   0.613  22.439  0.00  0.00    -0.320 N 
HETATM    4  C   UNK     0     -47.358  -0.768  22.467  0.00  0.00     0.319 C 
HETATM    5  N   UNK     0     -47.175  -1.372  23.675  0.00  0.00    -0.343 N 
HETATM    6  O   UNK     0     -47.390  -1.443  21.452  0.00  0.00    -0.247 OA
HETATM    7  C   UNK     0     -47.846   0.646  24.976  0.00  0.00     0.040 C 
HETATM    8  H   UNK     0     -47.084  -2.385  23.593  0.00  0.00     0.164 HD
ENDROOT
BRANCH   3   9
HETATM    9  C   UNK     0     -47.701   1.296  21.114  0.00  0.00     0.184 C 
BRANCH   9  10
HETATM   10  C   UNK     0     -46.318   1.528  20.446  0.00  0.00     0.241 C 
HETATM   11  N   UNK     0     -46.138   0.767  19.322  0.00  0.00    -0.354 N 
HETATM   12  H   UNK     0     -46.936   0.170  19.106  0.00  0.00     0.162 HD
HETATM   13  O   UNK     0     -45.498   2.322  20.911  0.00  0.00    -0.271 OA
BRANCH  11  14
HETATM   14  C   UNK     0     -44.922   0.779  18.480  0.00  0.00     0.091 C 
BRANCH  14  15
HETATM   15  C   UNK     0     -43.687   0.329  19.294  0.00  0.00     0.063 C 
BRANCH  15  16
HETATM   16  C   UNK     0     -42.539   1.290  19.417  0.00  0.00    -0.056 A 
HETATM   17  C   UNK     0     -42.528   2.493  18.660  0.00  0.00     0.007 A 
HETATM   18  C   UNK     0     -41.453   3.405  18.768  0.00  0.00     0.001 A 
HETATM   19  C   UNK     0     -40.375   3.123  19.638  0.00  0.00     0.000 A 
HETATM   20  C   UNK     0     -40.379   1.927  20.396  0.00  0.00     0.001 A 
HETATM   21  C   UNK     0     -41.457   1.016  20.285  0.00  0.00     0.007 A 
ENDBRANCH  15  16
ENDBRANCH  14  15
BRANCH  14  22
HETATM   22  C   UNK     0     -45.043  -0.205  17.296  0.00  0.00     0.059 C 
BRANCH  22  23
HETATM   23  C   UNK     0     -45.288  -1.701  17.566  0.00  0.00     0.143 C 
BRANCH  23  24
HETATM   24  C   UNK     0     -46.644  -2.289  17.098  0.00  0.00     0.117 C 
BRANCH  24  25
HETATM   25  N   UNK     0     -47.726  -1.398  17.577  0.00  0.00    -0.352 N 
HETATM   26  C   UNK     0     -48.754  -1.804  18.387  0.00  0.00     0.242 C 
HETATM   27  O   UNK     0     -48.904  -2.952  18.820  0.00  0.00    -0.271 OA
HETATM   28  H   UNK     0     -47.766  -0.410  17.324  0.00  0.00     0.163 HD
BRANCH  26  29
HETATM   29  C   UNK     0     -49.773  -0.700  18.730  0.00  0.00     0.278 C 
BRANCH  29  30
HETATM   30  O   UNK     0     -51.084  -1.238  18.980  0.00  0.00    -0.341 OA
BRANCH  30  31
HETATM   31  C   UNK     0     -51.980  -1.085  17.905  0.00  0.00     0.081 A 
HETATM   32  C   UNK     0     -52.403   0.213  17.451  0.00  0.00    -0.028 A 
HETATM   33  C   UNK     0     -53.308   0.303  16.359  0.00  0.00     0.009 A 
HETATM   34  C   UNK     0     -51.918   1.492  18.092  0.00  0.00     0.051 C 
HETATM   35  C   UNK     0     -53.790  -0.859  15.720  0.00  0.00     0.001 A 
HETATM   36  C   UNK     0     -53.380  -2.135  16.156  0.00  0.00     0.009 A 
HETATM   37  C   UNK     0     -52.480  -2.262  17.241  0.00  0.00    -0.028 A 
HETATM   38  C   UNK     0     -52.064  -3.627  17.675  0.00  0.00     0.051 C 
ENDBRANCH  30  31
ENDBRANCH  29  30
ENDBRANCH  26  29
ENDBRANCH  24  25
BRANCH  24  39
HETATM   39  C   UNK     0     -46.706  -2.365  15.544  0.00  0.00     0.066 C 
BRANCH  39  40
HETATM   40  C   UNK     0     -48.054  -2.013  14.945  0.00  0.00    -0.056 A 
HETATM   41  C   UNK     0     -48.299  -0.697  14.482  0.00  0.00     0.007 A 
HETATM   42  C   UNK     0     -49.552  -0.343  13.924  0.00  0.00     0.001 A 
HETATM   43  C   UNK     0     -50.575  -1.304  13.823  0.00  0.00     0.000 A 
HETATM   44  C   UNK     0     -50.343  -2.620  14.281  0.00  0.00     0.001 A 
HETATM   45  C   UNK     0     -49.092  -2.973  14.839  0.00  0.00     0.007 A 
ENDBRANCH  39  40
ENDBRANCH  24  39
ENDBRANCH  23  24
BRANCH  23  46
HETATM   46  O   UNK     0     -44.275  -2.388  16.870  0.00  0.00    -0.393 OA
HETATM   47  H   UNK     0     -44.582  -3.283  16.780  0.00  0.00     0.210 HD
ENDBRANCH  23  46
ENDBRANCH  22  23
ENDBRANCH  14  22
ENDBRANCH  11  14
ENDBRANCH   9  10
BRANCH   9  48
HETATM   48  C   UNK     0     -48.528   2.634  21.258  0.00  0.00     0.010 C 
HETATM   49  C   UNK     0     -48.210   3.673  20.166  0.00  0.00     0.012 C 
HETATM   50  C   UNK     0     -50.048   2.346  21.231  0.00  0.00     0.012 C 
ENDBRANCH   9  48
ENDBRANCH   3   9
TORSDOF 16
ENDMDL
MODEL 10
REMARK VINA RESULT:      -6.0      3.190      6.035
REMARK  16 active torsions:
REMARK  status: ('A' for Active; 'I' for Inactive)
REMARK    1  A    between atoms: N_3  and  C_13 
REMARK    2  A    between atoms: C_6  and  C_37 
REMARK    3  A    between atoms: C_13  and  C_14 
REMARK    4  A    between atoms: C_13  and  C_17 
REMARK       I    between atoms: C_14  and  N_15 
REMARK    5  A    between atoms: N_15  and  C_16 
REMARK    6  A    between atoms: C_16  and  C_27 
REMARK    7  A    between atoms: C_16  and  C_28 
REMARK    8  A    between atoms: C_25  and  C_27 
REMARK    9  A    between atoms: C_28  and  C_29 
REMARK   10  A    between atoms: C_29  and  C_30 
REMARK   11  A    between atoms: C_29  and  O_36 
REMARK   12  A    between atoms: C_30  and  N_31 
REMARK   13  A    between atoms: C_30  and  C_37 
REMARK       I    between atoms: N_31  and  C_32 
REMARK   14  A    between atoms: C_32  and  C_33 
REMARK   15  A    between atoms: C_33  and  O_34 
REMARK   16  A    between atoms: O_34  and  C_35 
ROOT
HETATM    1  C   UNK     0     -47.449   2.213  23.926  0.00  0.00     0.126 C 
HETATM    2  C   UNK     0     -48.817   2.132  21.824  0.00  0.00     0.130 C 
HETATM    3  N   UNK     0     -48.007   0.934  21.392  0.00  0.00    -0.320 N 
HETATM    4  C   UNK     0     -46.989   0.427  22.189  0.00  0.00     0.319 C 
HETATM    5  N   UNK     0     -46.738   1.039  23.381  0.00  0.00    -0.343 N 
HETATM    6  O   UNK     0     -46.322  -0.537  21.853  0.00  0.00    -0.247 OA
HETATM    7  C   UNK     0     -48.866   2.338  23.352  0.00  0.00     0.040 C 
HETATM    8  H   UNK     0     -45.978   0.594  23.895  0.00  0.00     0.164 HD
ENDROOT
BRANCH   3   9
HETATM    9  C   UNK     0     -48.293   0.272  20.072  0.00  0.00     0.184 C 
BRANCH   9  10
HETATM   10  C   UNK     0     -47.319   0.830  18.999  0.00  0.00     0.241 C 
HETATM   11  N   UNK     0     -46.423  -0.107  18.559  0.00  0.00    -0.354 N 
HETATM   12  H   UNK     0     -46.537  -1.017  19.006  0.00  0.00     0.162 HD
HETATM   13  O   UNK     0     -47.380   1.999  18.613  0.00  0.00    -0.271 OA
BRANCH  11  14
HETATM   14  C   UNK     0     -45.379   0.136  17.539  0.00  0.00     0.091 C 
BRANCH  14  15
HETATM   15  C   UNK     0     -44.004  -0.369  18.032  0.00  0.00     0.063 C 
BRANCH  15  16
HETATM   16  C   UNK     0     -43.210   0.531  18.937  0.00  0.00    -0.056 A 
HETATM   17  C   UNK     0     -43.031   1.902  18.607  0.00  0.00     0.007 A 
HETATM   18  C   UNK     0     -42.286   2.757  19.450  0.00  0.00     0.001 A 
HETATM   19  C   UNK     0     -41.711   2.248  20.638  0.00  0.00     0.000 A 
HETATM   20  C   UNK     0     -41.885   0.884  20.974  0.00  0.00     0.001 A 
HETATM   21  C   UNK     0     -42.631   0.031  20.126  0.00  0.00     0.007 A 
ENDBRANCH  15  16
ENDBRANCH  14  15
BRANCH  14  22
HETATM   22  C   UNK     0     -45.677  -0.628  16.231  0.00  0.00     0.059 C 
BRANCH  22  23
HETATM   23  C   UNK     0     -46.167  -2.086  16.289  0.00  0.00     0.143 C 
BRANCH  23  24
HETATM   24  C   UNK     0     -47.664  -2.315  16.619  0.00  0.00     0.117 C 
BRANCH  24  25
HETATM   25  N   UNK     0     -48.463  -1.330  15.855  0.00  0.00    -0.352 N 
HETATM   26  C   UNK     0     -48.852  -1.501  14.551  0.00  0.00     0.242 C 
HETATM   27  O   UNK     0     -48.592  -2.491  13.859  0.00  0.00    -0.271 OA
HETATM   28  H   UNK     0     -48.776  -0.450  16.265  0.00  0.00     0.163 HD
BRANCH  26  29
HETATM   29  C   UNK     0     -49.655  -0.325  13.963  0.00  0.00     0.278 C 
BRANCH  29  30
HETATM   30  O   UNK     0     -51.024  -0.687  13.702  0.00  0.00    -0.341 OA
BRANCH  30  31
HETATM   31  C   UNK     0     -51.882  -0.511  14.805  0.00  0.00     0.081 A 
HETATM   32  C   UNK     0     -52.314   0.794  15.228  0.00  0.00    -0.028 A 
HETATM   33  C   UNK     0     -53.182   0.906  16.347  0.00  0.00     0.009 A 
HETATM   34  C   UNK     0     -51.878   2.058  14.525  0.00  0.00     0.051 C 
HETATM   35  C   UNK     0     -53.624  -0.242  17.039  0.00  0.00     0.001 A 
HETATM   36  C   UNK     0     -53.209  -1.525  16.630  0.00  0.00     0.009 A 
HETATM   37  C   UNK     0     -52.344  -1.674  15.520  0.00  0.00    -0.028 A 
HETATM   38  C   UNK     0     -51.926  -3.046  15.112  0.00  0.00     0.051 C 
ENDBRANCH  30  31
ENDBRANCH  29  30
ENDBRANCH  26  29
ENDBRANCH  24  25
BRANCH  24  39
HETATM   39  C   UNK     0     -48.107  -3.750  16.207  0.00  0.00     0.066 C 
BRANCH  39  40
HETATM   40  C   UNK     0     -49.232  -4.331  17.042  0.00  0.00    -0.056 A 
HETATM   41  C   UNK     0     -49.745  -5.616  16.740  0.00  0.00     0.007 A 
HETATM   42  C   UNK     0     -50.799  -6.176  17.504  0.00  0.00     0.001 A 
HETATM   43  C   UNK     0     -51.350  -5.456  18.580  0.00  0.00     0.000 A 
HETATM   44  C   UNK     0     -50.845  -4.174  18.891  0.00  0.00     0.001 A 
HETATM   45  C   UNK     0     -49.794  -3.614  18.129  0.00  0.00     0.007 A 
ENDBRANCH  39  40
ENDBRANCH  24  39
ENDBRANCH  23  24
BRANCH  23  46
HETATM   46  O   UNK     0     -45.937  -2.620  15.007  0.00  0.00    -0.393 OA
HETATM   47  H   UNK     0     -45.674  -3.523  15.146  0.00  0.00     0.210 HD
ENDBRANCH  23  46
ENDBRANCH  22  23
ENDBRANCH  14  22
ENDBRANCH  11  14
ENDBRANCH   9  10
BRANCH   9  48
HETATM   48  C   UNK     0     -49.807   0.432  19.648  0.00  0.00     0.010 C 
HETATM   49  C   UNK     0     -50.031   0.338  18.127  0.00  0.00     0.012 C 
HETATM   50  C   UNK     0     -50.688  -0.634  20.340  0.00  0.00     0.012 C 
ENDBRANCH   9  48
ENDBRANCH   3   9
TORSDOF 16
ENDMDL
