MODEL 1
REMARK VINA RESULT:      -3.6      0.000      0.000
REMARK  9 active torsions:
REMARK  status: ('A' for Active; 'I' for Inactive)
REMARK    1  A    between atoms: S_1  and  S_2 
REMARK    2  A    between atoms: S_1  and  C_15 
REMARK    3  A    between atoms: S_2  and  C_16 
REMARK    4  A    between atoms: N_5  and  C_7 
REMARK    5  A    between atoms: N_5  and  C_8 
REMARK    6  A    between atoms: N_5  and  C_15 
REMARK    7  A    between atoms: N_6  and  C_9 
REMARK    8  A    between atoms: N_6  and  C_10 
REMARK    9  A    between atoms: N_6  and  C_16 
ROOT
HETATM    1  S   MOL     1     -46.602  -2.592  15.928  1.00  0.00    -0.020 SA
ENDROOT
BRANCH   1   2
HETATM    2  S   MOL     1     -45.903  -0.668  15.678  1.00  0.00    -0.020 SA
BRANCH   2   3
HETATM    3  C   MOL     1     -46.034  -0.025  17.331  1.00  0.00     0.147 C 
HETATM    4  S   MOL     1     -47.579   0.212  17.975  1.00  0.00    -0.052 SA
BRANCH   3   5
HETATM    5  N   MOL     1     -44.820   0.221  18.005  1.00  0.00    -0.367 N 
BRANCH   5   6
HETATM    6  C   MOL     1     -44.633   1.381  18.880  1.00  0.00     0.120 C 
HETATM    7  C   MOL     1     -43.212   1.900  18.818  1.00  0.00     0.026 C 
ENDBRANCH   5   6
BRANCH   5   8
HETATM    8  C   MOL     1     -43.642  -0.648  17.927  1.00  0.00     0.120 C 
HETATM    9  C   MOL     1     -43.664  -1.709  19.007  1.00  0.00     0.026 C 
ENDBRANCH   5   8
ENDBRANCH   3   5
ENDBRANCH   2   3
ENDBRANCH   1   2
BRANCH   1  10
HETATM   10  C   MOL     1     -48.275  -2.440  15.352  1.00  0.00     0.147 C 
HETATM   11  S   MOL     1     -48.663  -1.127  14.360  1.00  0.00    -0.052 SA
BRANCH  10  12
HETATM   12  N   MOL     1     -49.169  -3.455  15.751  1.00  0.00    -0.367 N 
BRANCH  12  13
HETATM   13  C   MOL     1     -50.257  -3.971  14.914  1.00  0.00     0.120 C 
HETATM   14  C   MOL     1     -51.587  -3.347  15.287  1.00  0.00     0.026 C 
ENDBRANCH  12  13
BRANCH  12  15
HETATM   15  C   MOL     1     -49.100  -4.084  17.072  1.00  0.00     0.120 C 
HETATM   16  C   MOL     1     -49.130  -5.595  16.970  1.00  0.00     0.026 C 
ENDBRANCH  12  15
ENDBRANCH  10  12
ENDBRANCH   1  10
TORSDOF 9
ENDMDL
MODEL 2
REMARK VINA RESULT:      -3.6      0.527      2.102
REMARK  9 active torsions:
REMARK  status: ('A' for Active; 'I' for Inactive)
REMARK    1  A    between atoms: S_1  and  S_2 
REMARK    2  A    between atoms: S_1  and  C_15 
REMARK    3  A    between atoms: S_2  and  C_16 
REMARK    4  A    between atoms: N_5  and  C_7 
REMARK    5  A    between atoms: N_5  and  C_8 
REMARK    6  A    between atoms: N_5  and  C_15 
REMARK    7  A    between atoms: N_6  and  C_9 
REMARK    8  A    between atoms: N_6  and  C_10 
REMARK    9  A    between atoms: N_6  and  C_16 
ROOT
HETATM    1  S   MOL     1     -46.549  -2.583  16.146  1.00  0.00    -0.020 SA
ENDROOT
BRANCH   1   2
HETATM    2  S   MOL     1     -45.725  -0.722  15.817  1.00  0.00    -0.020 SA
BRANCH   2   3
HETATM    3  C   MOL     1     -45.880   0.024  17.423  1.00  0.00     0.147 C 
HETATM    4  S   MOL     1     -47.434   0.270  18.042  1.00  0.00    -0.052 SA
BRANCH   3   5
HETATM    5  N   MOL     1     -44.676   0.338  18.087  1.00  0.00    -0.367 N 
BRANCH   5   6
HETATM    6  C   MOL     1     -43.498  -0.531  18.022  1.00  0.00     0.120 C 
HETATM    7  C   MOL     1     -43.651  -1.741  18.920  1.00  0.00     0.026 C 
ENDBRANCH   5   6
BRANCH   5   8
HETATM    8  C   MOL     1     -44.464   1.553  18.880  1.00  0.00     0.120 C 
HETATM    9  C   MOL     1     -43.004   1.954  18.899  1.00  0.00     0.026 C 
ENDBRANCH   5   8
ENDBRANCH   3   5
ENDBRANCH   2   3
ENDBRANCH   1   2
BRANCH   1  10
HETATM   10  C   MOL     1     -48.175  -2.378  15.461  1.00  0.00     0.147 C 
HETATM   11  S   MOL     1     -48.458  -1.045  14.460  1.00  0.00    -0.052 SA
BRANCH  10  12
HETATM   12  N   MOL     1     -49.121  -3.371  15.786  1.00  0.00    -0.367 N 
BRANCH  12  13
HETATM   13  C   MOL     1     -49.050  -4.218  16.982  1.00  0.00     0.120 C 
HETATM   14  C   MOL     1     -49.558  -3.489  18.209  1.00  0.00     0.026 C 
ENDBRANCH  12  13
BRANCH  12  15
HETATM   15  C   MOL     1     -50.275  -3.664  14.932  1.00  0.00     0.120 C 
HETATM   16  C   MOL     1     -50.748  -5.092  15.108  1.00  0.00     0.026 C 
ENDBRANCH  12  15
ENDBRANCH  10  12
ENDBRANCH   1  10
TORSDOF 9
ENDMDL
MODEL 3
REMARK VINA RESULT:      -3.6      2.652      7.441
REMARK  9 active torsions:
REMARK  status: ('A' for Active; 'I' for Inactive)
REMARK    1  A    between atoms: S_1  and  S_2 
REMARK    2  A    between atoms: S_1  and  C_15 
REMARK    3  A    between atoms: S_2  and  C_16 
REMARK    4  A    between atoms: N_5  and  C_7 
REMARK    5  A    between atoms: N_5  and  C_8 
REMARK    6  A    between atoms: N_5  and  C_15 
REMARK    7  A    between atoms: N_6  and  C_9 
REMARK    8  A    between atoms: N_6  and  C_10 
REMARK    9  A    between atoms: N_6  and  C_16 
ROOT
HETATM    1  S   MOL     1     -44.864   0.969  18.745  1.00  0.00    -0.020 SA
ENDROOT
BRANCH   1   2
HETATM    2  S   MOL     1     -45.961  -0.768  18.917  1.00  0.00    -0.020 SA
BRANCH   2   3
HETATM    3  C   MOL     1     -47.190  -0.539  17.653  1.00  0.00     0.147 C 
HETATM    4  S   MOL     1     -48.574   0.353  18.037  1.00  0.00    -0.052 SA
BRANCH   3   5
HETATM    5  N   MOL     1     -46.905  -1.104  16.393  1.00  0.00    -0.367 N 
BRANCH   5   6
HETATM    6  C   MOL     1     -47.621  -2.276  15.882  1.00  0.00     0.120 C 
HETATM    7  C   MOL     1     -47.464  -3.468  16.804  1.00  0.00     0.026 C 
ENDBRANCH   5   6
BRANCH   5   8
HETATM    8  C   MOL     1     -45.899  -0.583  15.462  1.00  0.00     0.120 C 
HETATM    9  C   MOL     1     -44.603  -1.359  15.555  1.00  0.00     0.026 C 
ENDBRANCH   5   8
ENDBRANCH   3   5
ENDBRANCH   2   3
ENDBRANCH   1   2
BRANCH   1  10
HETATM   10  C   MOL     1     -43.231   0.400  19.149  1.00  0.00     0.147 C 
HETATM   11  S   MOL     1     -42.927  -1.263  19.090  1.00  0.00    -0.052 SA
BRANCH  10  12
HETATM   12  N   MOL     1     -42.283   1.392  19.472  1.00  0.00    -0.367 N 
BRANCH  12  13
HETATM   13  C   MOL     1     -41.237   1.235  20.488  1.00  0.00     0.120 C 
HETATM   14  C   MOL     1     -41.831   1.050  21.870  1.00  0.00     0.026 C 
ENDBRANCH  12  13
BRANCH  12  15
HETATM   15  C   MOL     1     -42.270   2.704  18.819  1.00  0.00     0.120 C 
HETATM   16  C   MOL     1     -41.005   3.472  19.141  1.00  0.00     0.026 C 
ENDBRANCH  12  15
ENDBRANCH  10  12
ENDBRANCH   1  10
TORSDOF 9
ENDMDL
MODEL 4
REMARK VINA RESULT:      -3.5      1.371      2.808
REMARK  9 active torsions:
REMARK  status: ('A' for Active; 'I' for Inactive)
REMARK    1  A    between atoms: S_1  and  S_2 
REMARK    2  A    between atoms: S_1  and  C_15 
REMARK    3  A    between atoms: S_2  and  C_16 
REMARK    4  A    between atoms: N_5  and  C_7 
REMARK    5  A    between atoms: N_5  and  C_8 
REMARK    6  A    between atoms: N_5  and  C_15 
REMARK    7  A    between atoms: N_6  and  C_9 
REMARK    8  A    between atoms: N_6  and  C_10 
REMARK    9  A    between atoms: N_6  and  C_16 
ROOT
HETATM    1  S   MOL     1     -47.200  -2.624  16.149  1.00  0.00    -0.020 SA
ENDROOT
BRANCH   1   2
HETATM    2  S   MOL     1     -46.770  -1.080  17.447  1.00  0.00    -0.020 SA
BRANCH   2   3
HETATM    3  C   MOL     1     -45.057  -0.775  17.080  1.00  0.00     0.147 C 
HETATM    4  S   MOL     1     -44.498  -1.130  15.525  1.00  0.00    -0.052 SA
BRANCH   3   5
HETATM    5  N   MOL     1     -44.282  -0.226  18.123  1.00  0.00    -0.367 N 
BRANCH   5   6
HETATM    6  C   MOL     1     -43.163  -0.951  18.730  1.00  0.00     0.120 C 
HETATM    7  C   MOL     1     -43.502  -1.425  20.127  1.00  0.00     0.026 C 
ENDBRANCH   5   6
BRANCH   5   8
HETATM    8  C   MOL     1     -44.488   1.111  18.689  1.00  0.00     0.120 C 
HETATM    9  C   MOL     1     -43.198   1.903  18.724  1.00  0.00     0.026 C 
ENDBRANCH   5   8
ENDBRANCH   3   5
ENDBRANCH   2   3
ENDBRANCH   1   2
BRANCH   1  10
HETATM   10  C   MOL     1     -48.965  -2.746  16.315  1.00  0.00     0.147 C 
HETATM   11  S   MOL     1     -49.704  -1.940  17.605  1.00  0.00    -0.052 SA
BRANCH  10  12
HETATM   12  N   MOL     1     -49.635  -3.499  15.330  1.00  0.00    -0.367 N 
BRANCH  12  13
HETATM   13  C   MOL     1     -50.261  -4.803  15.572  1.00  0.00     0.120 C 
HETATM   14  C   MOL     1     -49.540  -5.570  16.662  1.00  0.00     0.026 C 
ENDBRANCH  12  13
BRANCH  12  15
HETATM   15  C   MOL     1     -49.754  -3.043  13.942  1.00  0.00     0.120 C 
HETATM   16  C   MOL     1     -50.529  -1.745  13.848  1.00  0.00     0.026 C 
ENDBRANCH  12  15
ENDBRANCH  10  12
ENDBRANCH   1  10
TORSDOF 9
ENDMDL
MODEL 5
REMARK VINA RESULT:      -3.5      2.569      6.612
REMARK  9 active torsions:
REMARK  status: ('A' for Active; 'I' for Inactive)
REMARK    1  A    between atoms: S_1  and  S_2 
REMARK    2  A    between atoms: S_1  and  C_15 
REMARK    3  A    between atoms: S_2  and  C_16 
REMARK    4  A    between atoms: N_5  and  C_7 
REMARK    5  A    between atoms: N_5  and  C_8 
REMARK    6  A    between atoms: N_5  and  C_15 
REMARK    7  A    between atoms: N_6  and  C_9 
REMARK    8  A    between atoms: N_6  and  C_10 
REMARK    9  A    between atoms: N_6  and  C_16 
ROOT
HETATM    1  S   MOL     1     -46.509  -0.176  20.018  1.00  0.00    -0.020 SA
ENDROOT
BRANCH   1   2
HETATM    2  S   MOL     1     -47.240   0.882  18.406  1.00  0.00    -0.020 SA
BRANCH   2   3
HETATM    3  C   MOL     1     -47.784  -0.430  17.337  1.00  0.00     0.147 C 
HETATM    4  S   MOL     1     -49.447  -0.691  17.177  1.00  0.00    -0.052 SA
BRANCH   3   5
HETATM    5  N   MOL     1     -46.775  -1.153  16.669  1.00  0.00    -0.367 N 
BRANCH   5   6
HETATM    6  C   MOL     1     -46.325  -2.471  17.125  1.00  0.00     0.120 C 
HETATM    7  C   MOL     1     -47.353  -3.542  16.825  1.00  0.00     0.026 C 
ENDBRANCH   5   6
BRANCH   5   8
HETATM    8  C   MOL     1     -46.092  -0.689  15.457  1.00  0.00     0.120 C 
HETATM    9  C   MOL     1     -44.632  -1.091  15.456  1.00  0.00     0.026 C 
ENDBRANCH   5   8
ENDBRANCH   3   5
ENDBRANCH   2   3
ENDBRANCH   1   2
BRANCH   1  10
HETATM   10  C   MOL     1     -45.176   0.869  20.554  1.00  0.00     0.147 C 
HETATM   11  S   MOL     1     -45.449   1.906  21.862  1.00  0.00    -0.052 SA
BRANCH  10  12
HETATM   12  N   MOL     1     -43.959   0.738  19.855  1.00  0.00    -0.367 N 
BRANCH  12  13
HETATM   13  C   MOL     1     -42.979  -0.327  20.097  1.00  0.00     0.120 C 
HETATM   14  C   MOL     1     -43.036  -1.388  19.017  1.00  0.00     0.026 C 
ENDBRANCH  12  13
BRANCH  12  15
HETATM   15  C   MOL     1     -43.547   1.684  18.816  1.00  0.00     0.120 C 
HETATM   16  C   MOL     1     -42.258   2.390  19.185  1.00  0.00     0.026 C 
ENDBRANCH  12  15
ENDBRANCH  10  12
ENDBRANCH   1  10
TORSDOF 9
ENDMDL
MODEL 6
REMARK VINA RESULT:      -3.4      1.703      6.784
REMARK  9 active torsions:
REMARK  status: ('A' for Active; 'I' for Inactive)
REMARK    1  A    between atoms: S_1  and  S_2 
REMARK    2  A    between atoms: S_1  and  C_15 
REMARK    3  A    between atoms: S_2  and  C_16 
REMARK    4  A    between atoms: N_5  and  C_7 
REMARK    5  A    between atoms: N_5  and  C_8 
REMARK    6  A    between atoms: N_5  and  C_15 
REMARK    7  A    between atoms: N_6  and  C_9 
REMARK    8  A    between atoms: N_6  and  C_10 
REMARK    9  A    between atoms: N_6  and  C_16 
ROOT
HETATM    1  S   MOL     1     -47.255  -0.735  16.051  1.00  0.00    -0.020 SA
ENDROOT
BRANCH   1   2
HETATM    2  S   MOL     1     -48.148  -2.442  16.786  1.00  0.00    -0.020 SA
BRANCH   2   3
HETATM    3  C   MOL     1     -49.850  -2.169  16.350  1.00  0.00     0.147 C 
HETATM    4  S   MOL     1     -50.851  -1.409  17.481  1.00  0.00    -0.052 SA
BRANCH   3   5
HETATM    5  N   MOL     1     -50.241  -2.589  15.062  1.00  0.00    -0.367 N 
BRANCH   5   6
HETATM    6  C   MOL     1     -50.031  -3.959  14.589  1.00  0.00     0.120 C 
HETATM    7  C   MOL     1     -50.769  -4.963  15.451  1.00  0.00     0.026 C 
ENDBRANCH   5   6
BRANCH   5   8
HETATM    8  C   MOL     1     -50.908  -1.727  14.081  1.00  0.00     0.120 C 
HETATM    9  C   MOL     1     -50.145  -0.437  13.867  1.00  0.00     0.026 C 
ENDBRANCH   5   8
ENDBRANCH   3   5
ENDBRANCH   2   3
ENDBRANCH   1   2
BRANCH   1  10
HETATM   10  C   MOL     1     -46.662   0.027  17.542  1.00  0.00     0.147 C 
HETATM   11  S   MOL     1     -47.769   0.870  18.504  1.00  0.00    -0.052 SA
BRANCH  10  12
HETATM   12  N   MOL     1     -45.294  -0.150  17.835  1.00  0.00    -0.367 N 
BRANCH  12  13
HETATM   13  C   MOL     1     -44.372  -0.944  17.016  1.00  0.00     0.120 C 
HETATM   14  C   MOL     1     -43.635  -1.972  17.850  1.00  0.00     0.026 C 
ENDBRANCH  12  13
BRANCH  12  15
HETATM   15  C   MOL     1     -44.663   0.441  19.017  1.00  0.00     0.120 C 
HETATM   16  C   MOL     1     -43.828   1.651  18.654  1.00  0.00     0.026 C 
ENDBRANCH  12  15
ENDBRANCH  10  12
ENDBRANCH   1  10
TORSDOF 9
ENDMDL
MODEL 7
REMARK VINA RESULT:      -3.4      1.189      6.637
REMARK  9 active torsions:
REMARK  status: ('A' for Active; 'I' for Inactive)
REMARK    1  A    between atoms: S_1  and  S_2 
REMARK    2  A    between atoms: S_1  and  C_15 
REMARK    3  A    between atoms: S_2  and  C_16 
REMARK    4  A    between atoms: N_5  and  C_7 
REMARK    5  A    between atoms: N_5  and  C_8 
REMARK    6  A    between atoms: N_5  and  C_15 
REMARK    7  A    between atoms: N_6  and  C_9 
REMARK    8  A    between atoms: N_6  and  C_10 
REMARK    9  A    between atoms: N_6  and  C_16 
ROOT
HETATM    1  S   MOL     1     -47.485  -0.702  16.456  1.00  0.00    -0.020 SA
ENDROOT
BRANCH   1   2
HETATM    2  S   MOL     1     -47.648  -2.211  15.061  1.00  0.00    -0.020 SA
BRANCH   2   3
HETATM    3  C   MOL     1     -49.389  -2.565  15.122  1.00  0.00     0.147 C 
HETATM    4  S   MOL     1     -50.454  -1.459  14.413  1.00  0.00    -0.052 SA
BRANCH   3   5
HETATM    5  N   MOL     1     -49.761  -3.775  15.744  1.00  0.00    -0.367 N 
BRANCH   5   6
HETATM    6  C   MOL     1     -50.448  -4.848  15.019  1.00  0.00     0.120 C 
HETATM    7  C   MOL     1     -51.901  -4.956  15.432  1.00  0.00     0.026 C 
ENDBRANCH   5   6
BRANCH   5   8
HETATM    8  C   MOL     1     -49.490  -4.098  17.148  1.00  0.00     0.120 C 
HETATM    9  C   MOL     1     -48.646  -5.349  17.276  1.00  0.00     0.026 C 
ENDBRANCH   5   8
ENDBRANCH   3   5
ENDBRANCH   2   3
ENDBRANCH   1   2
BRANCH   1  10
HETATM   10  C   MOL     1     -45.722  -0.555  16.617  1.00  0.00     0.147 C 
HETATM   11  S   MOL     1     -44.757  -1.062  15.323  1.00  0.00    -0.052 SA
BRANCH  10  12
HETATM   12  N   MOL     1     -45.247   0.003  17.821  1.00  0.00    -0.367 N 
BRANCH  12  13
HETATM   13  C   MOL     1     -46.057   0.832  18.721  1.00  0.00     0.120 C 
HETATM   14  C   MOL     1     -45.189   1.614  19.685  1.00  0.00     0.026 C 
ENDBRANCH  12  13
BRANCH  12  15
HETATM   15  C   MOL     1     -43.869  -0.182  18.280  1.00  0.00     0.120 C 
HETATM   16  C   MOL     1     -43.658  -1.566  18.859  1.00  0.00     0.026 C 
ENDBRANCH  12  15
ENDBRANCH  10  12
ENDBRANCH   1  10
TORSDOF 9
ENDMDL
MODEL 8
REMARK VINA RESULT:      -3.4      1.519      6.873
REMARK  9 active torsions:
REMARK  status: ('A' for Active; 'I' for Inactive)
REMARK    1  A    between atoms: S_1  and  S_2 
REMARK    2  A    between atoms: S_1  and  C_15 
REMARK    3  A    between atoms: S_2  and  C_16 
REMARK    4  A    between atoms: N_5  and  C_7 
REMARK    5  A    between atoms: N_5  and  C_8 
REMARK    6  A    between atoms: N_5  and  C_15 
REMARK    7  A    between atoms: N_6  and  C_9 
REMARK    8  A    between atoms: N_6  and  C_10 
REMARK    9  A    between atoms: N_6  and  C_16 
ROOT
HETATM    1  S   MOL     1     -46.707  -0.333  17.726  1.00  0.00    -0.020 SA
ENDROOT
BRANCH   1   2
HETATM    2  S   MOL     1     -47.397  -2.130  16.986  1.00  0.00    -0.020 SA
BRANCH   2   3
HETATM    3  C   MOL     1     -49.122  -1.774  16.741  1.00  0.00     0.147 C 
HETATM    4  S   MOL     1     -49.863  -0.663  17.778  1.00  0.00    -0.052 SA
BRANCH   3   5
HETATM    5  N   MOL     1     -49.752  -2.436  15.667  1.00  0.00    -0.367 N 
BRANCH   5   6
HETATM    6  C   MOL     1     -50.717  -3.519  15.873  1.00  0.00     0.120 C 
HETATM    7  C   MOL     1     -50.437  -4.693  14.957  1.00  0.00     0.026 C 
ENDBRANCH   5   6
BRANCH   5   8
HETATM    8  C   MOL     1     -49.535  -2.107  14.254  1.00  0.00     0.120 C 
HETATM    9  C   MOL     1     -49.211  -0.639  14.070  1.00  0.00     0.026 C 
ENDBRANCH   5   8
ENDBRANCH   3   5
ENDBRANCH   2   3
ENDBRANCH   1   2
BRANCH   1  10
HETATM   10  C   MOL     1     -44.976  -0.430  17.337  1.00  0.00     0.147 C 
HETATM   11  S   MOL     1     -44.525  -1.139  15.869  1.00  0.00    -0.052 SA
BRANCH  10  12
HETATM   12  N   MOL     1     -44.090   0.122  18.284  1.00  0.00    -0.367 N 
BRANCH  12  13
HETATM   13  C   MOL     1     -44.133   1.516  18.739  1.00  0.00     0.120 C 
HETATM   14  C   MOL     1     -42.739   2.081  18.924  1.00  0.00     0.026 C 
ENDBRANCH  12  13
BRANCH  12  15
HETATM   15  C   MOL     1     -43.014  -0.660  18.898  1.00  0.00     0.120 C 
HETATM   16  C   MOL     1     -43.487  -1.371  20.149  1.00  0.00     0.026 C 
ENDBRANCH  12  15
ENDBRANCH  10  12
ENDBRANCH   1  10
TORSDOF 9
ENDMDL
MODEL 9
REMARK VINA RESULT:      -3.3      1.424      6.744
REMARK  9 active torsions:
REMARK  status: ('A' for Active; 'I' for Inactive)
REMARK    1  A    between atoms: S_1  and  S_2 
REMARK    2  A    between atoms: S_1  and  C_15 
REMARK    3  A    between atoms: S_2  and  C_16 
REMARK    4  A    between atoms: N_5  and  C_7 
REMARK    5  A    between atoms: N_5  and  C_8 
REMARK    6  A    between atoms: N_5  and  C_15 
REMARK    7  A    between atoms: N_6  and  C_9 
REMARK    8  A    between atoms: N_6  and  C_10 
REMARK    9  A    between atoms: N_6  and  C_16 
ROOT
HETATM    1  S   MOL     1     -46.672  -1.045  18.240  1.00  0.00    -0.020 SA
ENDROOT
BRANCH   1   2
HETATM    2  S   MOL     1     -47.071  -2.613  16.961  1.00  0.00    -0.020 SA
BRANCH   2   3
HETATM    3  C   MOL     1     -48.798  -2.363  16.621  1.00  0.00     0.147 C 
HETATM    4  S   MOL     1     -49.752  -1.646  17.819  1.00  0.00    -0.052 SA
BRANCH   3   5
HETATM    5  N   MOL     1     -49.250  -2.764  15.347  1.00  0.00    -0.367 N 
BRANCH   5   6
HETATM    6  C   MOL     1     -48.758  -2.146  14.113  1.00  0.00     0.120 C 
HETATM    7  C   MOL     1     -48.842  -0.635  14.177  1.00  0.00     0.026 C 
ENDBRANCH   5   6
BRANCH   5   8
HETATM    8  C   MOL     1     -50.224  -3.835  15.116  1.00  0.00     0.120 C 
HETATM    9  C   MOL     1     -49.959  -5.028  16.010  1.00  0.00     0.026 C 
ENDBRANCH   5   8
ENDBRANCH   3   5
ENDBRANCH   2   3
ENDBRANCH   1   2
BRANCH   1  10
HETATM   10  C   MOL     1     -45.025  -0.595  17.748  1.00  0.00     0.147 C 
HETATM   11  S   MOL     1     -44.501  -1.047  16.204  1.00  0.00    -0.052 SA
BRANCH  10  12
HETATM   12  N   MOL     1     -44.270   0.138  18.685  1.00  0.00    -0.367 N 
BRANCH  12  13
HETATM   13  C   MOL     1     -43.513  -0.465  19.787  1.00  0.00     0.120 C 
HETATM   14  C   MOL     1     -42.971  -1.827  19.406  1.00  0.00     0.026 C 
ENDBRANCH  12  13
BRANCH  12  15
HETATM   15  C   MOL     1     -44.188   1.601  18.652  1.00  0.00     0.120 C 
HETATM   16  C   MOL     1     -42.766   2.082  18.854  1.00  0.00     0.026 C 
ENDBRANCH  12  15
ENDBRANCH  10  12
ENDBRANCH   1  10
TORSDOF 9
ENDMDL
MODEL 10
REMARK VINA RESULT:      -3.3      1.570      6.450
REMARK  9 active torsions:
REMARK  status: ('A' for Active; 'I' for Inactive)
REMARK    1  A    between atoms: S_1  and  S_2 
REMARK    2  A    between atoms: S_1  and  C_15 
REMARK    3  A    between atoms: S_2  and  C_16 
REMARK    4  A    between atoms: N_5  and  C_7 
REMARK    5  A    between atoms: N_5  and  C_8 
REMARK    6  A    between atoms: N_5  and  C_15 
REMARK    7  A    between atoms: N_6  and  C_9 
REMARK    8  A    between atoms: N_6  and  C_10 
REMARK    9  A    between atoms: N_6  and  C_16 
ROOT
HETATM    1  S   MOL     1     -47.322  -1.322  17.579  1.00  0.00    -0.020 SA
ENDROOT
BRANCH   1   2
HETATM    2  S   MOL     1     -47.157  -3.193  16.727  1.00  0.00    -0.020 SA
BRANCH   2   3
HETATM    3  C   MOL     1     -48.833  -3.503  16.222  1.00  0.00     0.147 C 
HETATM    4  S   MOL     1     -49.611  -4.873  16.836  1.00  0.00    -0.052 SA
BRANCH   3   5
HETATM    5  N   MOL     1     -49.411  -2.555  15.353  1.00  0.00    -0.367 N 
BRANCH   5   6
HETATM    6  C   MOL     1     -50.699  -1.917  15.637  1.00  0.00     0.120 C 
HETATM    7  C   MOL     1     -51.797  -2.464  14.749  1.00  0.00     0.026 C 
ENDBRANCH   5   6
BRANCH   5   8
HETATM    8  C   MOL     1     -48.793  -2.093  14.106  1.00  0.00     0.120 C 
HETATM    9  C   MOL     1     -48.717  -0.582  14.051  1.00  0.00     0.026 C 
ENDBRANCH   5   8
ENDBRANCH   3   5
ENDBRANCH   2   3
ENDBRANCH   1   2
BRANCH   1  10
HETATM   10  C   MOL     1     -45.758  -0.597  17.150  1.00  0.00     0.147 C 
HETATM   11  S   MOL     1     -45.185  -0.808  15.573  1.00  0.00    -0.052 SA
BRANCH  10  12
HETATM   12  N   MOL     1     -45.108   0.135  18.165  1.00  0.00    -0.367 N 
BRANCH  12  13
HETATM   13  C   MOL     1     -45.730   1.228  18.920  1.00  0.00     0.120 C 
HETATM   14  C   MOL     1     -45.797   0.911  20.400  1.00  0.00     0.026 C 
ENDBRANCH  12  13
BRANCH  12  15
HETATM   15  C   MOL     1     -43.719  -0.125  18.551  1.00  0.00     0.120 C 
HETATM   16  C   MOL     1     -43.497  -1.588  18.875  1.00  0.00     0.026 C 
ENDBRANCH  12  15
ENDBRANCH  10  12
ENDBRANCH   1  10
TORSDOF 9
ENDMDL
