MODEL 1
REMARK VINA RESULT:      -5.8      0.000      0.000
REMARK  7 active torsions:
REMARK  status: ('A' for Active; 'I' for Inactive)
REMARK    1  A    between atoms: O_2  and  C_10 
REMARK    2  A    between atoms: O_3  and  C_11 
REMARK    3  A    between atoms: O_4  and  C_14 
REMARK    4  A    between atoms: O_6  and  N_9 
REMARK    5  A    between atoms: N_7  and  C_12 
REMARK    6  A    between atoms: N_9  and  C_18 
REMARK    7  A    between atoms: C_13  and  C_14 
ROOT
HETATM    1  O   UNK     0     -46.161  -1.977  18.024  0.00  0.00    -0.353 OA
HETATM    2  C   UNK     0     -44.706  -1.437  16.235  0.00  0.00     0.198 C 
HETATM    3  C   UNK     0     -43.946  -1.296  17.537  0.00  0.00     0.182 C 
HETATM    4  C   UNK     0     -45.887  -2.296  16.651  0.00  0.00     0.264 C 
HETATM    5  C   UNK     0     -45.074  -1.189  18.554  0.00  0.00     0.179 C 
ENDROOT
BRANCH   4   6
HETATM    6  N   UNK     0     -47.060  -2.032  15.867  0.00  0.00    -0.278 N 
HETATM    7  C   UNK     0     -47.097  -0.884  15.091  0.00  0.00     0.102 A 
HETATM    8  C   UNK     0     -48.142  -0.561  14.332  0.00  0.00     0.070 A 
HETATM    9  C   UNK     0     -49.291  -1.503  14.356  0.00  0.00     0.153 A 
HETATM   10  N   UNK     0     -49.273  -2.589  15.083  0.00  0.00    -0.174 NA
HETATM   11  C   UNK     0     -48.175  -2.908  15.863  0.00  0.00     0.352 A 
HETATM   12  O   UNK     0     -48.173  -3.937  16.541  0.00  0.00    -0.244 OA
BRANCH   9  13
HETATM   13  N   UNK     0     -50.393  -1.205  13.587  0.00  0.00    -0.251 N 
HETATM   14  H   UNK     0     -51.221  -1.776  13.466  0.00  0.00     0.196 HD
BRANCH  13  15
HETATM   15  O   UNK     0     -50.351   0.043  13.035  0.00  0.00    -0.288 OA
HETATM   16  H   UNK     0     -50.499  -0.149  12.094  0.00  0.00     0.244 HD
ENDBRANCH  13  15
ENDBRANCH   9  13
ENDBRANCH   4   6
BRANCH   5  17
HETATM   17  C   UNK     0     -45.573   0.237  18.751  0.00  0.00     0.198 C 
BRANCH  17  18
HETATM   18  O   UNK     0     -44.471   1.120  18.651  0.00  0.00    -0.398 OA
HETATM   19  H   UNK     0     -44.176   1.106  17.725  0.00  0.00     0.209 HD
ENDBRANCH  17  18
ENDBRANCH   5  17
BRANCH   2  20
HETATM   20  O   UNK     0     -43.926  -2.038  15.221  0.00  0.00    -0.388 OA
HETATM   21  H   UNK     0     -44.472  -2.724  14.801  0.00  0.00     0.210 HD
ENDBRANCH   2  20
BRANCH   3  22
HETATM   22  O   UNK     0     -43.215  -2.491  17.815  0.00  0.00    -0.390 OA
HETATM   23  H   UNK     0     -43.684  -3.247  17.427  0.00  0.00     0.210 HD
ENDBRANCH   3  22
TORSDOF 7
ENDMDL
MODEL 2
REMARK VINA RESULT:      -5.8      1.579      1.816
REMARK  7 active torsions:
REMARK  status: ('A' for Active; 'I' for Inactive)
REMARK    1  A    between atoms: O_2  and  C_10 
REMARK    2  A    between atoms: O_3  and  C_11 
REMARK    3  A    between atoms: O_4  and  C_14 
REMARK    4  A    between atoms: O_6  and  N_9 
REMARK    5  A    between atoms: N_7  and  C_12 
REMARK    6  A    between atoms: N_9  and  C_18 
REMARK    7  A    between atoms: C_13  and  C_14 
ROOT
HETATM    1  O   UNK     0     -45.812  -0.780  19.035  0.00  0.00    -0.353 OA
HETATM    2  C   UNK     0     -43.919  -1.457  17.782  0.00  0.00     0.198 C 
HETATM    3  C   UNK     0     -43.444  -0.781  19.051  0.00  0.00     0.182 C 
HETATM    4  C   UNK     0     -45.358  -1.796  18.125  0.00  0.00     0.264 C 
HETATM    5  C   UNK     0     -44.680  -0.003  19.479  0.00  0.00     0.179 C 
ENDROOT
BRANCH   4   6
HETATM    6  N   UNK     0     -46.211  -1.802  16.971  0.00  0.00    -0.278 N 
HETATM    7  C   UNK     0     -46.134  -0.742  16.081  0.00  0.00     0.102 A 
HETATM    8  C   UNK     0     -46.885  -0.666  14.984  0.00  0.00     0.070 A 
HETATM    9  C   UNK     0     -47.829  -1.790  14.751  0.00  0.00     0.153 A 
HETATM   10  N   UNK     0     -47.914  -2.796  15.580  0.00  0.00    -0.174 NA
HETATM   11  C   UNK     0     -47.123  -2.858  16.715  0.00  0.00     0.352 A 
HETATM   12  O   UNK     0     -47.214  -3.815  17.484  0.00  0.00    -0.244 OA
BRANCH   9  13
HETATM   13  N   UNK     0     -48.625  -1.749  13.630  0.00  0.00    -0.251 N 
HETATM   14  H   UNK     0     -49.137  -0.949  13.278  0.00  0.00     0.196 HD
BRANCH  13  15
HETATM   15  O   UNK     0     -48.606  -2.906  12.906  0.00  0.00    -0.288 OA
HETATM   16  H   UNK     0     -47.902  -3.408  13.349  0.00  0.00     0.244 HD
ENDBRANCH  13  15
ENDBRANCH   9  13
ENDBRANCH   4   6
BRANCH   5  17
HETATM   17  C   UNK     0     -44.773   1.377  18.840  0.00  0.00     0.198 C 
BRANCH  17  18
HETATM   18  O   UNK     0     -46.139   1.690  18.635  0.00  0.00    -0.398 OA
HETATM   19  H   UNK     0     -46.652   0.897  18.869  0.00  0.00     0.209 HD
ENDBRANCH  17  18
ENDBRANCH   5  17
BRANCH   2  20
HETATM   20  O   UNK     0     -43.152  -2.601  17.464  0.00  0.00    -0.388 OA
HETATM   21  H   UNK     0     -42.524  -2.347  16.767  0.00  0.00     0.210 HD
ENDBRANCH   2  20
BRANCH   3  22
HETATM   22  O   UNK     0     -43.168  -1.756  20.057  0.00  0.00    -0.390 OA
HETATM   23  H   UNK     0     -43.328  -1.364  20.931  0.00  0.00     0.210 HD
ENDBRANCH   3  22
TORSDOF 7
ENDMDL
MODEL 3
REMARK VINA RESULT:      -5.5      2.219      5.652
REMARK  7 active torsions:
REMARK  status: ('A' for Active; 'I' for Inactive)
REMARK    1  A    between atoms: O_2  and  C_10 
REMARK    2  A    between atoms: O_3  and  C_11 
REMARK    3  A    between atoms: O_4  and  C_14 
REMARK    4  A    between atoms: O_6  and  N_9 
REMARK    5  A    between atoms: N_7  and  C_12 
REMARK    6  A    between atoms: N_9  and  C_18 
REMARK    7  A    between atoms: C_13  and  C_14 
ROOT
HETATM    1  O   UNK     0     -47.783  -0.222  14.336  0.00  0.00    -0.353 OA
HETATM    2  C   UNK     0     -48.158  -2.259  15.485  0.00  0.00     0.198 C 
HETATM    3  C   UNK     0     -49.018  -2.240  14.239  0.00  0.00     0.182 C 
HETATM    4  C   UNK     0     -47.128  -1.188  15.173  0.00  0.00     0.264 C 
HETATM    5  C   UNK     0     -49.050  -0.757  13.896  0.00  0.00     0.179 C 
ENDROOT
BRANCH   4   6
HETATM    6  N   UNK     0     -46.645  -0.531  16.354  0.00  0.00    -0.278 N 
HETATM    7  C   UNK     0     -47.566   0.010  17.238  0.00  0.00     0.102 A 
HETATM    8  C   UNK     0     -47.208   0.635  18.358  0.00  0.00     0.070 A 
HETATM    9  C   UNK     0     -45.749   0.730  18.623  0.00  0.00     0.153 A 
HETATM   10  N   UNK     0     -44.868   0.226  17.800  0.00  0.00    -0.174 NA
HETATM   11  C   UNK     0     -45.261  -0.422  16.642  0.00  0.00     0.352 A 
HETATM   12  O   UNK     0     -44.417  -0.894  15.878  0.00  0.00    -0.244 OA
BRANCH   9  13
HETATM   13  N   UNK     0     -45.337   1.371  19.769  0.00  0.00    -0.251 N 
HETATM   14  H   UNK     0     -45.876   1.508  20.616  0.00  0.00     0.196 HD
BRANCH  13  15
HETATM   15  O   UNK     0     -44.027   1.752  19.739  0.00  0.00    -0.288 OA
HETATM   16  H   UNK     0     -43.621   1.038  19.220  0.00  0.00     0.244 HD
ENDBRANCH  13  15
ENDBRANCH   9  13
ENDBRANCH   4   6
BRANCH   5  17
HETATM   17  C   UNK     0     -50.160   0.002  14.611  0.00  0.00     0.198 C 
BRANCH  17  18
HETATM   18  O   UNK     0     -50.848   0.798  13.663  0.00  0.00    -0.398 OA
HETATM   19  H   UNK     0     -51.771   0.863  13.960  0.00  0.00     0.209 HD
ENDBRANCH  17  18
ENDBRANCH   5  17
BRANCH   2  20
HETATM   20  O   UNK     0     -47.574  -3.525  15.714  0.00  0.00    -0.388 OA
HETATM   21  H   UNK     0     -48.144  -4.191  15.294  0.00  0.00     0.210 HD
ENDBRANCH   2  20
BRANCH   3  22
HETATM   22  O   UNK     0     -48.360  -2.924  13.173  0.00  0.00    -0.390 OA
HETATM   23  H   UNK     0     -49.028  -3.335  12.599  0.00  0.00     0.210 HD
ENDBRANCH   3  22
TORSDOF 7
ENDMDL
MODEL 4
REMARK VINA RESULT:      -5.1      2.856      5.365
REMARK  7 active torsions:
REMARK  status: ('A' for Active; 'I' for Inactive)
REMARK    1  A    between atoms: O_2  and  C_10 
REMARK    2  A    between atoms: O_3  and  C_11 
REMARK    3  A    between atoms: O_4  and  C_14 
REMARK    4  A    between atoms: O_6  and  N_9 
REMARK    5  A    between atoms: N_7  and  C_12 
REMARK    6  A    between atoms: N_9  and  C_18 
REMARK    7  A    between atoms: C_13  and  C_14 
ROOT
HETATM    1  O   UNK     0     -46.919  -0.325  15.597  0.00  0.00    -0.353 OA
HETATM    2  C   UNK     0     -45.616  -1.916  16.773  0.00  0.00     0.198 C 
HETATM    3  C   UNK     0     -46.121  -2.553  15.496  0.00  0.00     0.182 C 
HETATM    4  C   UNK     0     -45.789  -0.437  16.478  0.00  0.00     0.264 C 
HETATM    5  C   UNK     0     -47.280  -1.639  15.121  0.00  0.00     0.179 C 
ENDROOT
BRANCH   4   6
HETATM    6  N   UNK     0     -46.043   0.333  17.662  0.00  0.00    -0.278 N 
HETATM    7  C   UNK     0     -47.358   0.607  18.008  0.00  0.00     0.102 A 
HETATM    8  C   UNK     0     -47.686   1.312  19.089  0.00  0.00     0.070 A 
HETATM    9  C   UNK     0     -46.559   1.803  19.924  0.00  0.00     0.153 A 
HETATM   10  N   UNK     0     -45.315   1.555  19.612  0.00  0.00    -0.174 NA
HETATM   11  C   UNK     0     -44.994   0.818  18.484  0.00  0.00     0.352 A 
HETATM   12  O   UNK     0     -43.816   0.591  18.206  0.00  0.00    -0.244 OA
BRANCH   9  13
HETATM   13  N   UNK     0     -46.855   2.538  21.050  0.00  0.00    -0.251 N 
HETATM   14  H   UNK     0     -46.251   3.204  21.516  0.00  0.00     0.196 HD
BRANCH  13  15
HETATM   15  O   UNK     0     -48.142   2.383  21.477  0.00  0.00    -0.288 OA
HETATM   16  H   UNK     0     -48.172   2.980  22.244  0.00  0.00     0.244 HD
ENDBRANCH  13  15
ENDBRANCH   9  13
ENDBRANCH   4   6
BRANCH   5  17
HETATM   17  C   UNK     0     -48.596  -2.035  15.779  0.00  0.00     0.198 C 
BRANCH  17  18
HETATM   18  O   UNK     0     -48.785  -3.429  15.608  0.00  0.00    -0.398 OA
HETATM   19  H   UNK     0     -48.994  -3.576  14.670  0.00  0.00     0.209 HD
ENDBRANCH  17  18
ENDBRANCH   5  17
BRANCH   2  20
HETATM   20  O   UNK     0     -44.274  -2.261  17.051  0.00  0.00    -0.388 OA
HETATM   21  H   UNK     0     -44.155  -3.193  16.801  0.00  0.00     0.210 HD
ENDBRANCH   2  20
BRANCH   3  22
HETATM   22  O   UNK     0     -45.134  -2.454  14.470  0.00  0.00    -0.390 OA
HETATM   23  H   UNK     0     -45.520  -2.005  13.700  0.00  0.00     0.210 HD
ENDBRANCH   3  22
TORSDOF 7
ENDMDL
MODEL 5
REMARK VINA RESULT:      -4.9      2.067      3.741
REMARK  7 active torsions:
REMARK  status: ('A' for Active; 'I' for Inactive)
REMARK    1  A    between atoms: O_2  and  C_10 
REMARK    2  A    between atoms: O_3  and  C_11 
REMARK    3  A    between atoms: O_4  and  C_14 
REMARK    4  A    between atoms: O_6  and  N_9 
REMARK    5  A    between atoms: N_7  and  C_12 
REMARK    6  A    between atoms: N_9  and  C_18 
REMARK    7  A    between atoms: C_13  and  C_14 
ROOT
HETATM    1  O   UNK     0     -47.364  -2.384  15.226  0.00  0.00    -0.353 OA
HETATM    2  C   UNK     0     -47.235  -0.766  16.952  0.00  0.00     0.198 C 
HETATM    3  C   UNK     0     -46.181  -1.824  17.201  0.00  0.00     0.182 C 
HETATM    4  C   UNK     0     -47.562  -0.985  15.486  0.00  0.00     0.264 C 
HETATM    5  C   UNK     0     -46.686  -2.983  16.352  0.00  0.00     0.179 C 
ENDROOT
BRANCH   4   6
HETATM    6  N   UNK     0     -48.918  -0.639  15.168  0.00  0.00    -0.278 N 
HETATM    7  C   UNK     0     -49.913  -0.938  16.087  0.00  0.00     0.102 A 
HETATM    8  C   UNK     0     -51.196  -0.652  15.877  0.00  0.00     0.070 A 
HETATM    9  C   UNK     0     -51.522   0.012  14.588  0.00  0.00     0.153 A 
HETATM   10  N   UNK     0     -50.597   0.300  13.711  0.00  0.00    -0.174 NA
HETATM   11  C   UNK     0     -49.267  -0.003  13.950  0.00  0.00     0.352 A 
HETATM   12  O   UNK     0     -48.407   0.277  13.113  0.00  0.00    -0.244 OA
BRANCH   9  13
HETATM   13  N   UNK     0     -52.838   0.323  14.331  0.00  0.00    -0.251 N 
HETATM   14  H   UNK     0     -53.193   1.191  13.947  0.00  0.00     0.196 HD
BRANCH  13  15
HETATM   15  O   UNK     0     -53.694  -0.718  14.542  0.00  0.00    -0.288 OA
HETATM   16  H   UNK     0     -54.243  -0.383  15.270  0.00  0.00     0.244 HD
ENDBRANCH  13  15
ENDBRANCH   9  13
ENDBRANCH   4   6
BRANCH   5  17
HETATM   17  C   UNK     0     -47.680  -3.876  17.084  0.00  0.00     0.198 C 
BRANCH  17  18
HETATM   18  O   UNK     0     -48.639  -4.343  16.152  0.00  0.00    -0.398 OA
HETATM   19  H   UNK     0     -49.269  -3.616  16.002  0.00  0.00     0.209 HD
ENDBRANCH  17  18
ENDBRANCH   5  17
BRANCH   2  20
HETATM   20  O   UNK     0     -46.758   0.538  17.214  0.00  0.00    -0.388 OA
HETATM   21  H   UNK     0     -46.706   0.642  18.179  0.00  0.00     0.210 HD
ENDBRANCH   2  20
BRANCH   3  22
HETATM   22  O   UNK     0     -44.924  -1.404  16.668  0.00  0.00    -0.390 OA
HETATM   23  H   UNK     0     -44.273  -2.115  16.794  0.00  0.00     0.210 HD
ENDBRANCH   3  22
TORSDOF 7
ENDMDL
MODEL 6
REMARK VINA RESULT:      -4.9      2.096      3.330
REMARK  7 active torsions:
REMARK  status: ('A' for Active; 'I' for Inactive)
REMARK    1  A    between atoms: O_2  and  C_10 
REMARK    2  A    between atoms: O_3  and  C_11 
REMARK    3  A    between atoms: O_4  and  C_14 
REMARK    4  A    between atoms: O_6  and  N_9 
REMARK    5  A    between atoms: N_7  and  C_12 
REMARK    6  A    between atoms: N_9  and  C_18 
REMARK    7  A    between atoms: C_13  and  C_14 
ROOT
HETATM    1  O   UNK     0     -46.584  -1.012  19.631  0.00  0.00    -0.353 OA
HETATM    2  C   UNK     0     -45.315   0.887  19.003  0.00  0.00     0.198 C 
HETATM    3  C   UNK     0     -45.359   0.812  20.514  0.00  0.00     0.182 C 
HETATM    4  C   UNK     0     -45.703  -0.526  18.606  0.00  0.00     0.264 C 
HETATM    5  C   UNK     0     -46.550  -0.105  20.754  0.00  0.00     0.179 C 
ENDROOT
BRANCH   4   6
HETATM    6  N   UNK     0     -46.384  -0.574  17.344  0.00  0.00    -0.278 N 
HETATM    7  C   UNK     0     -47.770  -0.615  17.337  0.00  0.00     0.102 A 
HETATM    8  C   UNK     0     -48.484  -0.659  16.214  0.00  0.00     0.070 A 
HETATM    9  C   UNK     0     -47.715  -0.665  14.942  0.00  0.00     0.153 A 
HETATM   10  N   UNK     0     -46.409  -0.627  14.931  0.00  0.00    -0.174 NA
HETATM   11  C   UNK     0     -45.684  -0.579  16.110  0.00  0.00     0.352 A 
HETATM   12  O   UNK     0     -44.453  -0.542  16.081  0.00  0.00    -0.244 OA
BRANCH   9  13
HETATM   13  N   UNK     0     -48.415  -0.712  13.759  0.00  0.00    -0.251 N 
HETATM   14  H   UNK     0     -49.190  -1.326  13.536  0.00  0.00     0.196 HD
BRANCH  13  15
HETATM   15  O   UNK     0     -48.047   0.255  12.869  0.00  0.00    -0.288 OA
HETATM   16  H   UNK     0     -48.355   1.063  13.312  0.00  0.00     0.244 HD
ENDBRANCH  13  15
ENDBRANCH   9  13
ENDBRANCH   4   6
BRANCH   5  17
HETATM   17  C   UNK     0     -47.880   0.636  20.803  0.00  0.00     0.198 C 
BRANCH  17  18
HETATM   18  O   UNK     0     -48.928  -0.304  20.650  0.00  0.00    -0.398 OA
HETATM   19  H   UNK     0     -49.765   0.190  20.697  0.00  0.00     0.209 HD
ENDBRANCH  17  18
ENDBRANCH   5  17
BRANCH   2  20
HETATM   20  O   UNK     0     -44.040   1.257  18.520  0.00  0.00    -0.388 OA
HETATM   21  H   UNK     0     -44.143   2.092  18.032  0.00  0.00     0.210 HD
ENDBRANCH   2  20
BRANCH   3  22
HETATM   22  O   UNK     0     -44.192   0.156  21.011  0.00  0.00    -0.390 OA
HETATM   23  H   UNK     0     -44.311  -0.805  20.933  0.00  0.00     0.210 HD
ENDBRANCH   3  22
TORSDOF 7
ENDMDL
MODEL 7
REMARK VINA RESULT:      -4.8      1.824      3.618
REMARK  7 active torsions:
REMARK  status: ('A' for Active; 'I' for Inactive)
REMARK    1  A    between atoms: O_2  and  C_10 
REMARK    2  A    between atoms: O_3  and  C_11 
REMARK    3  A    between atoms: O_4  and  C_14 
REMARK    4  A    between atoms: O_6  and  N_9 
REMARK    5  A    between atoms: N_7  and  C_12 
REMARK    6  A    between atoms: N_9  and  C_18 
REMARK    7  A    between atoms: C_13  and  C_14 
ROOT
HETATM    1  O   UNK     0     -46.529  -0.453  15.690  0.00  0.00    -0.353 OA
HETATM    2  C   UNK     0     -46.755  -1.034  17.976  0.00  0.00     0.198 C 
HETATM    3  C   UNK     0     -45.486  -0.226  17.805  0.00  0.00     0.182 C 
HETATM    4  C   UNK     0     -47.516  -0.700  16.706  0.00  0.00     0.264 C 
HETATM    5  C   UNK     0     -45.229  -0.349  16.309  0.00  0.00     0.179 C 
ENDROOT
BRANCH   4   6
HETATM    6  N   UNK     0     -48.367  -1.773  16.278  0.00  0.00    -0.278 N 
HETATM    7  C   UNK     0     -48.161  -3.038  16.807  0.00  0.00     0.102 A 
HETATM    8  C   UNK     0     -48.903  -4.090  16.469  0.00  0.00     0.070 A 
HETATM    9  C   UNK     0     -49.983  -3.845  15.478  0.00  0.00     0.153 A 
HETATM   10  N   UNK     0     -50.190  -2.660  14.969  0.00  0.00    -0.174 NA
HETATM   11  C   UNK     0     -49.408  -1.577  15.335  0.00  0.00     0.352 A 
HETATM   12  O   UNK     0     -49.619  -0.466  14.847  0.00  0.00    -0.244 OA
BRANCH   9  13
HETATM   13  N   UNK     0     -50.772  -4.908  15.100  0.00  0.00    -0.251 N 
HETATM   14  H   UNK     0     -51.253  -5.021  14.216  0.00  0.00     0.196 HD
BRANCH  13  15
HETATM   15  O   UNK     0     -50.790  -5.924  16.011  0.00  0.00    -0.288 OA
HETATM   16  H   UNK     0     -50.655  -5.447  16.846  0.00  0.00     0.244 HD
ENDBRANCH  13  15
ENDBRANCH   9  13
ENDBRANCH   4   6
BRANCH   5  17
HETATM   17  C   UNK     0     -44.427  -1.590  15.937  0.00  0.00     0.198 C 
BRANCH  17  18
HETATM   18  O   UNK     0     -44.865  -2.049  14.671  0.00  0.00    -0.398 OA
HETATM   19  H   UNK     0     -44.726  -3.012  14.652  0.00  0.00     0.209 HD
ENDBRANCH  17  18
ENDBRANCH   5  17
BRANCH   2  20
HETATM   20  O   UNK     0     -47.464  -0.678  19.145  0.00  0.00    -0.388 OA
HETATM   21  H   UNK     0     -47.227  -1.317  19.838  0.00  0.00     0.210 HD
ENDBRANCH   2  20
BRANCH   3  22
HETATM   22  O   UNK     0     -45.733   1.150  18.096  0.00  0.00    -0.390 OA
HETATM   23  H   UNK     0     -46.636   1.376  17.818  0.00  0.00     0.210 HD
ENDBRANCH   3  22
TORSDOF 7
ENDMDL
MODEL 8
REMARK VINA RESULT:      -4.7      1.902      2.555
REMARK  7 active torsions:
REMARK  status: ('A' for Active; 'I' for Inactive)
REMARK    1  A    between atoms: O_2  and  C_10 
REMARK    2  A    between atoms: O_3  and  C_11 
REMARK    3  A    between atoms: O_4  and  C_14 
REMARK    4  A    between atoms: O_6  and  N_9 
REMARK    5  A    between atoms: N_7  and  C_12 
REMARK    6  A    between atoms: N_9  and  C_18 
REMARK    7  A    between atoms: C_13  and  C_14 
ROOT
HETATM    1  O   UNK     0     -47.555  -0.412  19.072  0.00  0.00    -0.353 OA
HETATM    2  C   UNK     0     -45.586   0.378  18.018  0.00  0.00     0.198 C 
HETATM    3  C   UNK     0     -45.774   1.130  19.319  0.00  0.00     0.182 C 
HETATM    4  C   UNK     0     -46.475  -0.835  18.224  0.00  0.00     0.264 C 
HETATM    5  C   UNK     0     -47.248   0.890  19.615  0.00  0.00     0.179 C 
ENDROOT
BRANCH   4   6
HETATM    6  N   UNK     0     -47.018  -1.333  16.992  0.00  0.00    -0.278 N 
HETATM    7  C   UNK     0     -47.406  -0.423  16.020  0.00  0.00     0.102 A 
HETATM    8  C   UNK     0     -47.917  -0.795  14.849  0.00  0.00     0.070 A 
HETATM    9  C   UNK     0     -48.057  -2.257  14.624  0.00  0.00     0.153 A 
HETATM   10  N   UNK     0     -47.696  -3.128  15.529  0.00  0.00    -0.174 NA
HETATM   11  C   UNK     0     -47.165  -2.721  16.741  0.00  0.00     0.352 A 
HETATM   12  O   UNK     0     -46.828  -3.555  17.582  0.00  0.00    -0.244 OA
BRANCH   9  13
HETATM   13  N   UNK     0     -48.584  -2.684  13.426  0.00  0.00    -0.251 N 
HETATM   14  H   UNK     0     -48.137  -3.290  12.748  0.00  0.00     0.196 HD
BRANCH  13  15
HETATM   15  O   UNK     0     -49.878  -2.298  13.232  0.00  0.00    -0.288 OA
HETATM   16  H   UNK     0     -50.369  -3.014  13.669  0.00  0.00     0.244 HD
ENDBRANCH  13  15
ENDBRANCH   9  13
ENDBRANCH   4   6
BRANCH   5  17
HETATM   17  C   UNK     0     -48.168   1.909  18.953  0.00  0.00     0.198 C 
BRANCH  17  18
HETATM   18  O   UNK     0     -47.506   3.160  18.916  0.00  0.00    -0.398 OA
HETATM   19  H   UNK     0     -48.191   3.848  18.981  0.00  0.00     0.209 HD
ENDBRANCH  17  18
ENDBRANCH   5  17
BRANCH   2  20
HETATM   20  O   UNK     0     -44.235   0.030  17.791  0.00  0.00    -0.388 OA
HETATM   21  H   UNK     0     -43.980   0.395  16.927  0.00  0.00     0.210 HD
ENDBRANCH   2  20
BRANCH   3  22
HETATM   22  O   UNK     0     -45.011   0.518  20.359  0.00  0.00    -0.390 OA
HETATM   23  H   UNK     0     -45.472  -0.283  20.661  0.00  0.00     0.210 HD
ENDBRANCH   3  22
TORSDOF 7
ENDMDL
MODEL 9
REMARK VINA RESULT:      -4.7      2.703      4.499
REMARK  7 active torsions:
REMARK  status: ('A' for Active; 'I' for Inactive)
REMARK    1  A    between atoms: O_2  and  C_10 
REMARK    2  A    between atoms: O_3  and  C_11 
REMARK    3  A    between atoms: O_4  and  C_14 
REMARK    4  A    between atoms: O_6  and  N_9 
REMARK    5  A    between atoms: N_7  and  C_12 
REMARK    6  A    between atoms: N_9  and  C_18 
REMARK    7  A    between atoms: C_13  and  C_14 
ROOT
HETATM    1  O   UNK     0     -46.593  -2.979  15.512  0.00  0.00    -0.353 OA
HETATM    2  C   UNK     0     -48.205  -1.322  16.029  0.00  0.00     0.198 C 
HETATM    3  C   UNK     0     -46.856  -0.653  15.874  0.00  0.00     0.182 C 
HETATM    4  C   UNK     0     -47.980  -2.651  15.331  0.00  0.00     0.264 C 
HETATM    5  C   UNK     0     -45.898  -1.826  16.035  0.00  0.00     0.179 C 
ENDROOT
BRANCH   4   6
HETATM    6  N   UNK     0     -48.784  -3.704  15.884  0.00  0.00    -0.278 N 
HETATM    7  C   UNK     0     -48.253  -4.481  16.902  0.00  0.00     0.102 A 
HETATM    8  C   UNK     0     -48.927  -5.477  17.474  0.00  0.00     0.070 A 
HETATM    9  C   UNK     0     -50.300  -5.724  16.961  0.00  0.00     0.153 A 
HETATM   10  N   UNK     0     -50.814  -5.002  16.002  0.00  0.00    -0.174 NA
HETATM   11  C   UNK     0     -50.098  -3.969  15.421  0.00  0.00     0.352 A 
HETATM   12  O   UNK     0     -50.599  -3.296  14.520  0.00  0.00    -0.244 OA
BRANCH   9  13
HETATM   13  N   UNK     0     -51.030  -6.746  17.524  0.00  0.00    -0.251 N 
HETATM   14  H   UNK     0     -51.967  -6.684  17.906  0.00  0.00     0.196 HD
BRANCH  13  15
HETATM   15  O   UNK     0     -50.417  -7.963  17.442  0.00  0.00    -0.288 OA
HETATM   16  H   UNK     0     -50.270  -8.177  18.379  0.00  0.00     0.244 HD
ENDBRANCH  13  15
ENDBRANCH   9  13
ENDBRANCH   4   6
BRANCH   5  17
HETATM   17  C   UNK     0     -45.533  -2.110  17.486  0.00  0.00     0.198 C 
BRANCH  17  18
HETATM   18  O   UNK     0     -44.201  -2.588  17.532  0.00  0.00    -0.398 OA
HETATM   19  H   UNK     0     -44.243  -3.558  17.483  0.00  0.00     0.209 HD
ENDBRANCH  17  18
ENDBRANCH   5  17
BRANCH   2  20
HETATM   20  O   UNK     0     -49.247  -0.569  15.442  0.00  0.00    -0.388 OA
HETATM   21  H   UNK     0     -49.420   0.192  16.022  0.00  0.00     0.210 HD
ENDBRANCH   2  20
BRANCH   3  22
HETATM   22  O   UNK     0     -46.706  -0.141  14.550  0.00  0.00    -0.390 OA
HETATM   23  H   UNK     0     -45.818   0.240  14.455  0.00  0.00     0.210 HD
ENDBRANCH   3  22
TORSDOF 7
ENDMDL
MODEL 10
REMARK VINA RESULT:      -4.7      3.182      4.458
REMARK  7 active torsions:
REMARK  status: ('A' for Active; 'I' for Inactive)
REMARK    1  A    between atoms: O_2  and  C_10 
REMARK    2  A    between atoms: O_3  and  C_11 
REMARK    3  A    between atoms: O_4  and  C_14 
REMARK    4  A    between atoms: O_6  and  N_9 
REMARK    5  A    between atoms: N_7  and  C_12 
REMARK    6  A    between atoms: N_9  and  C_18 
REMARK    7  A    between atoms: C_13  and  C_14 
ROOT
HETATM    1  O   UNK     0     -45.643  -0.226  16.354  0.00  0.00    -0.353 OA
HETATM    2  C   UNK     0     -45.523  -1.419  18.397  0.00  0.00     0.198 C 
HETATM    3  C   UNK     0     -44.596  -2.077  17.397  0.00  0.00     0.182 C 
HETATM    4  C   UNK     0     -45.735  -0.050  17.777  0.00  0.00     0.264 C 
HETATM    5  C   UNK     0     -45.126  -1.544  16.073  0.00  0.00     0.179 C 
ENDROOT
BRANCH   4   6
HETATM    6  N   UNK     0     -47.020   0.504  18.096  0.00  0.00    -0.278 N 
HETATM    7  C   UNK     0     -48.150  -0.069  17.532  0.00  0.00     0.102 A 
HETATM    8  C   UNK     0     -49.381   0.378  17.773  0.00  0.00     0.070 A 
HETATM    9  C   UNK     0     -49.493   1.542  18.691  0.00  0.00     0.153 A 
HETATM   10  N   UNK     0     -48.438   2.093  19.230  0.00  0.00    -0.174 NA
HETATM   11  C   UNK     0     -47.166   1.612  18.969  0.00  0.00     0.352 A 
HETATM   12  O   UNK     0     -46.183   2.143  19.488  0.00  0.00    -0.244 OA
BRANCH   9  13
HETATM   13  N   UNK     0     -50.747   2.036  18.965  0.00  0.00    -0.251 N 
HETATM   14  H   UNK     0     -51.272   1.918  19.823  0.00  0.00     0.196 HD
BRANCH  13  15
HETATM   15  O   UNK     0     -51.244   2.839  17.979  0.00  0.00    -0.288 OA
HETATM   16  H   UNK     0     -50.454   3.336  17.708  0.00  0.00     0.244 HD
ENDBRANCH  13  15
ENDBRANCH   9  13
ENDBRANCH   4   6
BRANCH   5  17
HETATM   17  C   UNK     0     -46.260  -2.384  15.497  0.00  0.00     0.198 C 
BRANCH  17  18
HETATM   18  O   UNK     0     -45.797  -3.024  14.321  0.00  0.00    -0.398 OA
HETATM   19  H   UNK     0     -44.853  -2.808  14.231  0.00  0.00     0.209 HD
ENDBRANCH  17  18
ENDBRANCH   5  17
BRANCH   2  20
HETATM   20  O   UNK     0     -44.955  -1.349  19.689  0.00  0.00    -0.388 OA
HETATM   21  H   UNK     0     -45.330  -2.077  20.213  0.00  0.00     0.210 HD
ENDBRANCH   2  20
BRANCH   3  22
HETATM   22  O   UNK     0     -43.264  -1.592  17.564  0.00  0.00    -0.390 OA
HETATM   23  H   UNK     0     -42.687  -2.017  16.908  0.00  0.00     0.210 HD
ENDBRANCH   3  22
TORSDOF 7
ENDMDL
