MODEL 1
REMARK VINA RESULT:      -7.2      0.000      0.000
REMARK  15 active torsions:
REMARK  status: ('A' for Active; 'I' for Inactive)
REMARK    1  A    between atoms: O_2  and  C_18 
REMARK    2  A    between atoms: O_2  and  C_22 
REMARK    3  A    between atoms: O_4  and  C_14 
REMARK    4  A    between atoms: O_5  and  C_21 
REMARK    5  A    between atoms: O_5  and  C_25 
REMARK    6  A    between atoms: O_6  and  C_15 
REMARK    7  A    between atoms: O_7  and  C_16 
REMARK    8  A    between atoms: O_8  and  C_17 
REMARK    9  A    between atoms: O_9  and  C_19 
REMARK   10  A    between atoms: O_10  and  C_20 
REMARK   11  A    between atoms: O_11  and  C_30 
REMARK   12  A    between atoms: O_12  and  C_32 
REMARK   13  A    between atoms: C_13  and  C_22 
REMARK   14  A    between atoms: C_25  and  C_26 
REMARK   15  A    between atoms: C_26  and  C_27 
ROOT
HETATM    1  O   UNK     0     -46.598  -0.839  18.083  0.00  0.00    -0.348 OA
HETATM    2  C   UNK     0     -46.973  -0.198  16.863  0.00  0.00     0.180 C 
HETATM    3  C   UNK     0     -46.437  -0.993  15.670  0.00  0.00     0.180 C 
HETATM    4  C   UNK     0     -44.922  -1.174  15.775  0.00  0.00     0.183 C 
HETATM    5  C   UNK     0     -44.522  -1.691  17.156  0.00  0.00     0.204 C 
HETATM    6  C   UNK     0     -45.184  -0.878  18.268  0.00  0.00     0.291 C 
ENDROOT
BRANCH   2   7
HETATM    7  C   UNK     0     -48.496  -0.105  16.842  0.00  0.00     0.205 C 
BRANCH   7   8
HETATM    8  O   UNK     0     -49.041  -1.405  17.017  0.00  0.00    -0.356 OA
BRANCH   8   9
HETATM    9  C   UNK     0     -50.385  -1.472  16.553  0.00  0.00     0.291 C 
HETATM   10  O   UNK     0     -50.769  -2.800  16.182  0.00  0.00    -0.351 OA
HETATM   11  C   UNK     0     -50.039  -3.333  15.072  0.00  0.00     0.152 C 
HETATM   12  C   UNK     0     -50.218  -2.458  13.823  0.00  0.00     0.178 C 
HETATM   13  C   UNK     0     -50.545  -4.757  14.849  0.00  0.00     0.042 C 
HETATM   14  C   UNK     0     -49.839  -1.011  14.138  0.00  0.00     0.183 C 
HETATM   15  C   UNK     0     -50.575  -0.510  15.382  0.00  0.00     0.204 C 
BRANCH  12  16
HETATM   16  O   UNK     0     -49.374  -2.920  12.772  0.00  0.00    -0.390 OA
HETATM   17  H   UNK     0     -49.482  -2.321  12.013  0.00  0.00     0.210 HD
ENDBRANCH  12  16
BRANCH  14  18
HETATM   18  O   UNK     0     -50.160  -0.188  13.019  0.00  0.00    -0.390 OA
HETATM   19  H   UNK     0     -50.182  -0.758  12.232  0.00  0.00     0.210 HD
ENDBRANCH  14  18
BRANCH  15  20
HETATM   20  O   UNK     0     -51.976  -0.420  15.116  0.00  0.00    -0.388 OA
HETATM   21  H   UNK     0     -52.215  -1.169  14.545  0.00  0.00     0.210 HD
ENDBRANCH  15  20
ENDBRANCH   8   9
ENDBRANCH   7   8
ENDBRANCH   2   7
BRANCH   6  22
HETATM   22  O   UNK     0     -44.878  -1.506  19.514  0.00  0.00    -0.358 OA
BRANCH  22  23
HETATM   23  C   UNK     0     -44.528  -0.549  20.501  0.00  0.00     0.175 C 
BRANCH  23  24
HETATM   24  C   UNK     0     -43.025  -0.595  20.752  0.00  0.00     0.065 C 
BRANCH  24  25
HETATM   25  C   UNK     0     -42.342   0.700  20.386  0.00  0.00    -0.053 A 
HETATM   26  C   UNK     0     -41.271   1.163  21.148  0.00  0.00     0.046 A 
HETATM   27  C   UNK     0     -40.638   2.359  20.808  0.00  0.00     0.099 A 
HETATM   28  C   UNK     0     -41.078   3.092  19.706  0.00  0.00     0.098 A 
HETATM   29  C   UNK     0     -42.149   2.628  18.943  0.00  0.00     0.040 A 
HETATM   30  C   UNK     0     -42.782   1.432  19.282  0.00  0.00     0.010 A 
BRANCH  27  31
HETATM   31  O   UNK     0     -39.591   2.801  21.560  0.00  0.00    -0.358 OA
HETATM   32  H   UNK     0     -39.935   3.215  22.370  0.00  0.00     0.217 HD
ENDBRANCH  27  31
BRANCH  28  33
HETATM   33  O   UNK     0     -40.468   4.262  19.364  0.00  0.00    -0.358 OA
HETATM   34  H   UNK     0     -39.655   4.062  18.869  0.00  0.00     0.217 HD
ENDBRANCH  28  33
ENDBRANCH  24  25
ENDBRANCH  23  24
ENDBRANCH  22  23
ENDBRANCH   6  22
BRANCH   3  35
HETATM   35  O   UNK     0     -46.747  -0.299  14.464  0.00  0.00    -0.390 OA
HETATM   36  H   UNK     0     -47.656  -0.531  14.210  0.00  0.00     0.210 HD
ENDBRANCH   3  35
BRANCH   5  37
HETATM   37  O   UNK     0     -43.106  -1.586  17.309  0.00  0.00    -0.388 OA
HETATM   38  H   UNK     0     -42.927  -1.123  18.146  0.00  0.00     0.210 HD
ENDBRANCH   5  37
BRANCH   4  39
HETATM   39  O   UNK     0     -44.520  -2.116  14.779  0.00  0.00    -0.390 OA
HETATM   40  H   UNK     0     -43.867  -2.717  15.177  0.00  0.00     0.210 HD
ENDBRANCH   4  39
TORSDOF 15
ENDMDL
MODEL 2
REMARK VINA RESULT:      -6.9      1.418      1.753
REMARK  15 active torsions:
REMARK  status: ('A' for Active; 'I' for Inactive)
REMARK    1  A    between atoms: O_2  and  C_18 
REMARK    2  A    between atoms: O_2  and  C_22 
REMARK    3  A    between atoms: O_4  and  C_14 
REMARK    4  A    between atoms: O_5  and  C_21 
REMARK    5  A    between atoms: O_5  and  C_25 
REMARK    6  A    between atoms: O_6  and  C_15 
REMARK    7  A    between atoms: O_7  and  C_16 
REMARK    8  A    between atoms: O_8  and  C_17 
REMARK    9  A    between atoms: O_9  and  C_19 
REMARK   10  A    between atoms: O_10  and  C_20 
REMARK   11  A    between atoms: O_11  and  C_30 
REMARK   12  A    between atoms: O_12  and  C_32 
REMARK   13  A    between atoms: C_13  and  C_22 
REMARK   14  A    between atoms: C_25  and  C_26 
REMARK   15  A    between atoms: C_26  and  C_27 
ROOT
HETATM    1  O   UNK     0     -46.433  -0.816  18.020  0.00  0.00    -0.348 OA
HETATM    2  C   UNK     0     -46.968  -0.205  16.845  0.00  0.00     0.180 C 
HETATM    3  C   UNK     0     -46.773  -1.130  15.641  0.00  0.00     0.180 C 
HETATM    4  C   UNK     0     -45.298  -1.497  15.471  0.00  0.00     0.183 C 
HETATM    5  C   UNK     0     -44.693  -1.979  16.789  0.00  0.00     0.204 C 
HETATM    6  C   UNK     0     -45.025  -1.025  17.936  0.00  0.00     0.291 C 
ENDROOT
BRANCH   2   7
HETATM    7  C   UNK     0     -48.443   0.081  17.105  0.00  0.00     0.205 C 
BRANCH   7   8
HETATM    8  O   UNK     0     -49.230  -0.851  16.377  0.00  0.00    -0.356 OA
BRANCH   8   9
HETATM    9  C   UNK     0     -50.029  -1.648  17.245  0.00  0.00     0.291 C 
HETATM   10  O   UNK     0     -49.371  -2.858  17.635  0.00  0.00    -0.351 OA
HETATM   11  C   UNK     0     -49.111  -3.759  16.552  0.00  0.00     0.152 C 
HETATM   12  C   UNK     0     -50.413  -4.171  15.852  0.00  0.00     0.178 C 
HETATM   13  C   UNK     0     -48.373  -4.960  17.140  0.00  0.00     0.042 C 
HETATM   14  C   UNK     0     -51.188  -2.928  15.412  0.00  0.00     0.183 C 
HETATM   15  C   UNK     0     -51.369  -1.954  16.578  0.00  0.00     0.204 C 
BRANCH  12  16
HETATM   16  O   UNK     0     -50.126  -4.948  14.693  0.00  0.00    -0.390 OA
HETATM   17  H   UNK     0     -50.782  -4.726  14.010  0.00  0.00     0.210 HD
ENDBRANCH  12  16
BRANCH  14  18
HETATM   18  O   UNK     0     -52.462  -3.324  14.909  0.00  0.00    -0.390 OA
HETATM   19  H   UNK     0     -53.042  -2.543  14.932  0.00  0.00     0.210 HD
ENDBRANCH  14  18
BRANCH  15  20
HETATM   20  O   UNK     0     -52.225  -2.529  17.566  0.00  0.00    -0.388 OA
HETATM   21  H   UNK     0     -52.731  -3.240  17.138  0.00  0.00     0.210 HD
ENDBRANCH  15  20
ENDBRANCH   8   9
ENDBRANCH   7   8
ENDBRANCH   2   7
BRANCH   6  22
HETATM   22  O   UNK     0     -44.552  -1.613  19.148  0.00  0.00    -0.358 OA
BRANCH  22  23
HETATM   23  C   UNK     0     -43.722  -0.714  19.868  0.00  0.00     0.175 C 
BRANCH  23  24
HETATM   24  C   UNK     0     -43.468   0.534  19.030  0.00  0.00     0.065 C 
BRANCH  24  25
HETATM   25  C   UNK     0     -42.404   1.420  19.629  0.00  0.00    -0.053 A 
HETATM   26  C   UNK     0     -41.678   0.988  20.738  0.00  0.00     0.046 A 
HETATM   27  C   UNK     0     -40.693   1.807  21.290  0.00  0.00     0.099 A 
HETATM   28  C   UNK     0     -40.434   3.059  20.732  0.00  0.00     0.098 A 
HETATM   29  C   UNK     0     -41.159   3.491  19.622  0.00  0.00     0.040 A 
HETATM   30  C   UNK     0     -42.144   2.673  19.069  0.00  0.00     0.010 A 
BRANCH  27  31
HETATM   31  O   UNK     0     -39.990   1.373  22.372  0.00  0.00    -0.358 OA
HETATM   32  H   UNK     0     -39.675   0.468  22.204  0.00  0.00     0.217 HD
ENDBRANCH  27  31
BRANCH  28  33
HETATM   33  O   UNK     0     -39.474   3.868  21.262  0.00  0.00    -0.358 OA
HETATM   34  H   UNK     0     -39.780   4.791  21.222  0.00  0.00     0.217 HD
ENDBRANCH  28  33
ENDBRANCH  24  25
ENDBRANCH  23  24
ENDBRANCH  22  23
ENDBRANCH   6  22
BRANCH   3  35
HETATM   35  O   UNK     0     -47.235  -0.473  14.464  0.00  0.00    -0.390 OA
HETATM   36  H   UNK     0     -46.648  -0.724  13.730  0.00  0.00     0.210 HD
ENDBRANCH   3  35
BRANCH   5  37
HETATM   37  O   UNK     0     -43.273  -2.047  16.662  0.00  0.00    -0.388 OA
HETATM   38  H   UNK     0     -43.065  -2.354  15.762  0.00  0.00     0.210 HD
ENDBRANCH   5  37
BRANCH   4  39
HETATM   39  O   UNK     0     -45.212  -2.539  14.498  0.00  0.00    -0.390 OA
HETATM   40  H   UNK     0     -44.502  -3.147  14.768  0.00  0.00     0.210 HD
ENDBRANCH   4  39
TORSDOF 15
ENDMDL
MODEL 3
REMARK VINA RESULT:      -6.8      2.827      5.068
REMARK  15 active torsions:
REMARK  status: ('A' for Active; 'I' for Inactive)
REMARK    1  A    between atoms: O_2  and  C_18 
REMARK    2  A    between atoms: O_2  and  C_22 
REMARK    3  A    between atoms: O_4  and  C_14 
REMARK    4  A    between atoms: O_5  and  C_21 
REMARK    5  A    between atoms: O_5  and  C_25 
REMARK    6  A    between atoms: O_6  and  C_15 
REMARK    7  A    between atoms: O_7  and  C_16 
REMARK    8  A    between atoms: O_8  and  C_17 
REMARK    9  A    between atoms: O_9  and  C_19 
REMARK   10  A    between atoms: O_10  and  C_20 
REMARK   11  A    between atoms: O_11  and  C_30 
REMARK   12  A    between atoms: O_12  and  C_32 
REMARK   13  A    between atoms: C_13  and  C_22 
REMARK   14  A    between atoms: C_25  and  C_26 
REMARK   15  A    between atoms: C_26  and  C_27 
ROOT
HETATM    1  O   UNK     0     -47.987  -0.340  19.552  0.00  0.00    -0.348 OA
HETATM    2  C   UNK     0     -49.409  -0.249  19.451  0.00  0.00     0.180 C 
HETATM    3  C   UNK     0     -49.812   1.161  19.014  0.00  0.00     0.180 C 
HETATM    4  C   UNK     0     -49.242   2.210  19.970  0.00  0.00     0.183 C 
HETATM    5  C   UNK     0     -47.749   1.985  20.209  0.00  0.00     0.204 C 
HETATM    6  C   UNK     0     -47.453   0.526  20.552  0.00  0.00     0.291 C 
ENDROOT
BRANCH   2   7
HETATM    7  C   UNK     0     -49.868  -1.304  18.450  0.00  0.00     0.205 C 
BRANCH   7   8
HETATM    8  O   UNK     0     -49.752  -0.776  17.136  0.00  0.00    -0.356 OA
BRANCH   8   9
HETATM    9  C   UNK     0     -50.909  -1.059  16.357  0.00  0.00     0.291 C 
HETATM   10  O   UNK     0     -50.999  -2.442  15.996  0.00  0.00    -0.351 OA
HETATM   11  C   UNK     0     -49.943  -2.895  15.143  0.00  0.00     0.152 C 
HETATM   12  C   UNK     0     -49.912  -2.098  13.831  0.00  0.00     0.178 C 
HETATM   13  C   UNK     0     -50.174  -4.385  14.902  0.00  0.00     0.042 C 
HETATM   14  C   UNK     0     -49.829  -0.601  14.129  0.00  0.00     0.183 C 
HETATM   15  C   UNK     0     -50.922  -0.175  15.111  0.00  0.00     0.204 C 
BRANCH  12  16
HETATM   16  O   UNK     0     -48.772  -2.462  13.060  0.00  0.00    -0.390 OA
HETATM   17  H   UNK     0     -49.079  -2.963  12.285  0.00  0.00     0.210 HD
ENDBRANCH  12  16
BRANCH  14  18
HETATM   18  O   UNK     0     -49.961   0.128  12.911  0.00  0.00    -0.390 OA
HETATM   19  H   UNK     0     -50.847  -0.057  12.554  0.00  0.00     0.210 HD
ENDBRANCH  14  18
BRANCH  15  20
HETATM   20  O   UNK     0     -52.206  -0.306  14.499  0.00  0.00    -0.388 OA
HETATM   21  H   UNK     0     -52.681   0.531  14.631  0.00  0.00     0.210 HD
ENDBRANCH  15  20
ENDBRANCH   8   9
ENDBRANCH   7   8
ENDBRANCH   2   7
BRANCH   6  22
HETATM   22  O   UNK     0     -46.036   0.368  20.620  0.00  0.00    -0.358 OA
BRANCH  22  23
HETATM   23  C   UNK     0     -45.407   0.838  19.438  0.00  0.00     0.175 C 
BRANCH  23  24
HETATM   24  C   UNK     0     -44.424  -0.209  18.927  0.00  0.00     0.065 C 
BRANCH  24  25
HETATM   25  C   UNK     0     -44.939  -0.935  17.708  0.00  0.00    -0.053 A 
HETATM   26  C   UNK     0     -45.820  -2.006  17.854  0.00  0.00     0.046 A 
HETATM   27  C   UNK     0     -46.298  -2.675  16.727  0.00  0.00     0.099 A 
HETATM   28  C   UNK     0     -45.892  -2.273  15.454  0.00  0.00     0.098 A 
HETATM   29  C   UNK     0     -45.011  -1.203  15.308  0.00  0.00     0.040 A 
HETATM   30  C   UNK     0     -44.534  -0.532  16.435  0.00  0.00     0.010 A 
BRANCH  27  31
HETATM   31  O   UNK     0     -47.160  -3.718  16.882  0.00  0.00    -0.358 OA
HETATM   32  H   UNK     0     -48.058  -3.369  17.015  0.00  0.00     0.217 HD
ENDBRANCH  27  31
BRANCH  28  33
HETATM   33  O   UNK     0     -46.352  -2.919  14.345  0.00  0.00    -0.358 OA
HETATM   34  H   UNK     0     -47.283  -2.679  14.202  0.00  0.00     0.217 HD
ENDBRANCH  28  33
ENDBRANCH  24  25
ENDBRANCH  23  24
ENDBRANCH  22  23
ENDBRANCH   6  22
BRANCH   3  35
HETATM   35  O   UNK     0     -51.233   1.261  18.998  0.00  0.00    -0.390 OA
HETATM   36  H   UNK     0     -51.529   1.484  19.897  0.00  0.00     0.210 HD
ENDBRANCH   3  35
BRANCH   5  37
HETATM   37  O   UNK     0     -47.317   2.797  21.301  0.00  0.00    -0.388 OA
HETATM   38  H   UNK     0     -46.581   2.340  21.744  0.00  0.00     0.210 HD
ENDBRANCH   5  37
BRANCH   4  39
HETATM   39  O   UNK     0     -49.441   3.497  19.383  0.00  0.00    -0.390 OA
HETATM   40  H   UNK     0     -50.056   3.397  18.636  0.00  0.00     0.210 HD
ENDBRANCH   4  39
TORSDOF 15
ENDMDL
MODEL 4
REMARK VINA RESULT:      -6.5      5.922      8.483
REMARK  15 active torsions:
REMARK  status: ('A' for Active; 'I' for Inactive)
REMARK    1  A    between atoms: O_2  and  C_18 
REMARK    2  A    between atoms: O_2  and  C_22 
REMARK    3  A    between atoms: O_4  and  C_14 
REMARK    4  A    between atoms: O_5  and  C_21 
REMARK    5  A    between atoms: O_5  and  C_25 
REMARK    6  A    between atoms: O_6  and  C_15 
REMARK    7  A    between atoms: O_7  and  C_16 
REMARK    8  A    between atoms: O_8  and  C_17 
REMARK    9  A    between atoms: O_9  and  C_19 
REMARK   10  A    between atoms: O_10  and  C_20 
REMARK   11  A    between atoms: O_11  and  C_30 
REMARK   12  A    between atoms: O_12  and  C_32 
REMARK   13  A    between atoms: C_13  and  C_22 
REMARK   14  A    between atoms: C_25  and  C_26 
REMARK   15  A    between atoms: C_26  and  C_27 
ROOT
HETATM    1  O   UNK     0     -47.942  -5.885  18.759  0.00  0.00    -0.348 OA
HETATM    2  C   UNK     0     -48.743  -5.261  17.754  0.00  0.00     0.180 C 
HETATM    3  C   UNK     0     -50.126  -5.914  17.710  0.00  0.00     0.180 C 
HETATM    4  C   UNK     0     -50.009  -7.422  17.490  0.00  0.00     0.183 C 
HETATM    5  C   UNK     0     -49.006  -8.046  18.460  0.00  0.00     0.204 C 
HETATM    6  C   UNK     0     -47.695  -7.262  18.485  0.00  0.00     0.291 C 
ENDROOT
BRANCH   2   7
HETATM    7  C   UNK     0     -48.829  -3.776  18.090  0.00  0.00     0.205 C 
BRANCH   7   8
HETATM    8  O   UNK     0     -48.605  -3.021  16.907  0.00  0.00    -0.356 OA
BRANCH   8   9
HETATM    9  C   UNK     0     -47.293  -3.230  16.397  0.00  0.00     0.291 C 
HETATM   10  O   UNK     0     -46.277  -2.930  17.360  0.00  0.00    -0.351 OA
HETATM   11  C   UNK     0     -46.232  -1.554  17.753  0.00  0.00     0.152 C 
HETATM   12  C   UNK     0     -45.977  -0.642  16.545  0.00  0.00     0.178 C 
HETATM   13  C   UNK     0     -45.133  -1.428  18.806  0.00  0.00     0.042 C 
HETATM   14  C   UNK     0     -47.017  -0.910  15.457  0.00  0.00     0.183 C 
HETATM   15  C   UNK     0     -47.095  -2.402  15.128  0.00  0.00     0.204 C 
BRANCH  12  16
HETATM   16  O   UNK     0     -46.079   0.726  16.929  0.00  0.00    -0.390 OA
HETATM   17  H   UNK     0     -46.762   1.144  16.377  0.00  0.00     0.210 HD
ENDBRANCH  12  16
BRANCH  14  18
HETATM   18  O   UNK     0     -46.673  -0.173  14.286  0.00  0.00    -0.390 OA
HETATM   19  H   UNK     0     -47.342   0.524  14.171  0.00  0.00     0.210 HD
ENDBRANCH  14  18
BRANCH  15  20
HETATM   20  O   UNK     0     -45.877  -2.830  14.515  0.00  0.00    -0.388 OA
HETATM   21  H   UNK     0     -45.824  -2.409  13.641  0.00  0.00     0.210 HD
ENDBRANCH  15  20
ENDBRANCH   8   9
ENDBRANCH   7   8
ENDBRANCH   2   7
BRANCH   6  22
HETATM   22  O   UNK     0     -46.870  -7.817  19.511  0.00  0.00    -0.358 OA
BRANCH  22  23
HETATM   23  C   UNK     0     -45.751  -8.496  18.962  0.00  0.00     0.175 C 
BRANCH  23  24
HETATM   24  C   UNK     0     -45.427  -9.721  19.809  0.00  0.00     0.065 C 
BRANCH  24  25
HETATM   25  C   UNK     0     -43.960 -10.073  19.772  0.00  0.00    -0.053 A 
HETATM   26  C   UNK     0     -43.094  -9.556  20.734  0.00  0.00     0.046 A 
HETATM   27  C   UNK     0     -41.738  -9.884  20.700  0.00  0.00     0.099 A 
HETATM   28  C   UNK     0     -41.250 -10.728  19.703  0.00  0.00     0.098 A 
HETATM   29  C   UNK     0     -42.116 -11.245  18.741  0.00  0.00     0.040 A 
HETATM   30  C   UNK     0     -43.472 -10.919  18.775  0.00  0.00     0.010 A 
BRANCH  27  31
HETATM   31  O   UNK     0     -40.902  -9.373  21.647  0.00  0.00    -0.358 OA
HETATM   32  H   UNK     0     -40.997  -9.890  22.465  0.00  0.00     0.217 HD
ENDBRANCH  27  31
BRANCH  28  33
HETATM   33  O   UNK     0     -39.927 -11.055  19.660  0.00  0.00    -0.358 OA
HETATM   34  H   UNK     0     -39.628 -11.283  20.557  0.00  0.00     0.217 HD
ENDBRANCH  28  33
ENDBRANCH  24  25
ENDBRANCH  23  24
ENDBRANCH  22  23
ENDBRANCH   6  22
BRANCH   3  35
HETATM   35  O   UNK     0     -50.885  -5.339  16.649  0.00  0.00    -0.390 OA
HETATM   36  H   UNK     0     -51.704  -4.976  17.028  0.00  0.00     0.210 HD
ENDBRANCH   3  35
BRANCH   5  37
HETATM   37  O   UNK     0     -48.719  -9.383  18.050  0.00  0.00    -0.388 OA
HETATM   38  H   UNK     0     -48.462  -9.892  18.838  0.00  0.00     0.210 HD
ENDBRANCH   5  37
BRANCH   4  39
HETATM   39  O   UNK     0     -51.298  -8.001  17.700  0.00  0.00    -0.390 OA
HETATM   40  H   UNK     0     -51.447  -8.068  18.658  0.00  0.00     0.210 HD
ENDBRANCH   4  39
TORSDOF 15
ENDMDL
MODEL 5
REMARK VINA RESULT:      -6.5      2.860      5.362
REMARK  15 active torsions:
REMARK  status: ('A' for Active; 'I' for Inactive)
REMARK    1  A    between atoms: O_2  and  C_18 
REMARK    2  A    between atoms: O_2  and  C_22 
REMARK    3  A    between atoms: O_4  and  C_14 
REMARK    4  A    between atoms: O_5  and  C_21 
REMARK    5  A    between atoms: O_5  and  C_25 
REMARK    6  A    between atoms: O_6  and  C_15 
REMARK    7  A    between atoms: O_7  and  C_16 
REMARK    8  A    between atoms: O_8  and  C_17 
REMARK    9  A    between atoms: O_9  and  C_19 
REMARK   10  A    between atoms: O_10  and  C_20 
REMARK   11  A    between atoms: O_11  and  C_30 
REMARK   12  A    between atoms: O_12  and  C_32 
REMARK   13  A    between atoms: C_13  and  C_22 
REMARK   14  A    between atoms: C_25  and  C_26 
REMARK   15  A    between atoms: C_26  and  C_27 
ROOT
HETATM    1  O   UNK     0     -43.032   1.558  18.761  0.00  0.00    -0.348 OA
HETATM    2  C   UNK     0     -43.438   0.203  18.961  0.00  0.00     0.180 C 
HETATM    3  C   UNK     0     -44.410   0.119  20.140  0.00  0.00     0.180 C 
HETATM    4  C   UNK     0     -43.788   0.719  21.401  0.00  0.00     0.183 C 
HETATM    5  C   UNK     0     -43.195   2.099  21.122  0.00  0.00     0.204 C 
HETATM    6  C   UNK     0     -42.313   2.084  19.874  0.00  0.00     0.291 C 
ENDROOT
BRANCH   2   7
HETATM    7  C   UNK     0     -44.079  -0.282  17.665  0.00  0.00     0.205 C 
BRANCH   7   8
HETATM    8  O   UNK     0     -45.466  -0.491  17.884  0.00  0.00    -0.356 OA
BRANCH   8   9
HETATM    9  C   UNK     0     -46.236  -0.105  16.751  0.00  0.00     0.291 C 
HETATM   10  O   UNK     0     -47.642  -0.278  16.961  0.00  0.00    -0.351 OA
HETATM   11  C   UNK     0     -48.044  -1.639  17.149  0.00  0.00     0.152 C 
HETATM   12  C   UNK     0     -47.671  -2.498  15.933  0.00  0.00     0.178 C 
HETATM   13  C   UNK     0     -49.550  -1.628  17.402  0.00  0.00     0.042 C 
HETATM   14  C   UNK     0     -46.179  -2.359  15.630  0.00  0.00     0.183 C 
HETATM   15  C   UNK     0     -45.775  -0.888  15.523  0.00  0.00     0.204 C 
BRANCH  12  16
HETATM   16  O   UNK     0     -47.946  -3.871  16.195  0.00  0.00    -0.390 OA
HETATM   17  H   UNK     0     -47.608  -4.394  15.448  0.00  0.00     0.210 HD
ENDBRANCH  12  16
BRANCH  14  18
HETATM   18  O   UNK     0     -45.883  -3.034  14.409  0.00  0.00    -0.390 OA
HETATM   19  H   UNK     0     -46.211  -2.479  13.681  0.00  0.00     0.210 HD
ENDBRANCH  14  18
BRANCH  15  20
HETATM   20  O   UNK     0     -46.387  -0.297  14.376  0.00  0.00    -0.388 OA
HETATM   21  H   UNK     0     -46.898  -0.990  13.925  0.00  0.00     0.210 HD
ENDBRANCH  15  20
ENDBRANCH   8   9
ENDBRANCH   7   8
ENDBRANCH   2   7
BRANCH   6  22
HETATM   22  O   UNK     0     -41.915   3.428  19.600  0.00  0.00    -0.358 OA
BRANCH  22  23
HETATM   23  C   UNK     0     -40.503   3.546  19.543  0.00  0.00     0.175 C 
BRANCH  23  24
HETATM   24  C   UNK     0     -40.001   4.311  20.762  0.00  0.00     0.065 C 
BRANCH  24  25
HETATM   25  C   UNK     0     -39.201   5.534  20.384  0.00  0.00    -0.053 A 
HETATM   26  C   UNK     0     -39.266   6.035  19.084  0.00  0.00     0.046 A 
HETATM   27  C   UNK     0     -38.528   7.167  18.736  0.00  0.00     0.099 A 
HETATM   28  C   UNK     0     -37.725   7.796  19.687  0.00  0.00     0.098 A 
HETATM   29  C   UNK     0     -37.660   7.294  20.986  0.00  0.00     0.040 A 
HETATM   30  C   UNK     0     -38.398   6.163  21.336  0.00  0.00     0.010 A 
BRANCH  27  31
HETATM   31  O   UNK     0     -38.601   7.649  17.464  0.00  0.00    -0.358 OA
HETATM   32  H   UNK     0     -38.032   8.434  17.389  0.00  0.00     0.217 HD
ENDBRANCH  27  31
BRANCH  28  33
HETATM   33  O   UNK     0     -36.999   8.902  19.358  0.00  0.00    -0.358 OA
HETATM   34  H   UNK     0     -36.228   8.961  19.948  0.00  0.00     0.217 HD
ENDBRANCH  28  33
ENDBRANCH  24  25
ENDBRANCH  23  24
ENDBRANCH  22  23
ENDBRANCH   6  22
BRANCH   3  35
HETATM   35  O   UNK     0     -44.742  -1.246  20.381  0.00  0.00    -0.390 OA
HETATM   36  H   UNK     0     -44.680  -1.406  21.338  0.00  0.00     0.210 HD
ENDBRANCH   3  35
BRANCH   5  37
HETATM   37  O   UNK     0     -42.393   2.504  22.231  0.00  0.00    -0.388 OA
HETATM   38  H   UNK     0     -41.461   2.481  21.954  0.00  0.00     0.210 HD
ENDBRANCH   5  37
BRANCH   4  39
HETATM   39  O   UNK     0     -44.815   0.833  22.389  0.00  0.00    -0.390 OA
HETATM   40  H   UNK     0     -44.668   0.143  23.059  0.00  0.00     0.210 HD
ENDBRANCH   4  39
TORSDOF 15
ENDMDL
MODEL 6
REMARK VINA RESULT:      -6.4      3.068      8.062
REMARK  15 active torsions:
REMARK  status: ('A' for Active; 'I' for Inactive)
REMARK    1  A    between atoms: O_2  and  C_18 
REMARK    2  A    between atoms: O_2  and  C_22 
REMARK    3  A    between atoms: O_4  and  C_14 
REMARK    4  A    between atoms: O_5  and  C_21 
REMARK    5  A    between atoms: O_5  and  C_25 
REMARK    6  A    between atoms: O_6  and  C_15 
REMARK    7  A    between atoms: O_7  and  C_16 
REMARK    8  A    between atoms: O_8  and  C_17 
REMARK    9  A    between atoms: O_9  and  C_19 
REMARK   10  A    between atoms: O_10  and  C_20 
REMARK   11  A    between atoms: O_11  and  C_30 
REMARK   12  A    between atoms: O_12  and  C_32 
REMARK   13  A    between atoms: C_13  and  C_22 
REMARK   14  A    between atoms: C_25  and  C_26 
REMARK   15  A    between atoms: C_26  and  C_27 
ROOT
HETATM    1  O   UNK     0     -49.571   0.979  18.819  0.00  0.00    -0.348 OA
HETATM    2  C   UNK     0     -48.429   1.805  19.052  0.00  0.00     0.180 C 
HETATM    3  C   UNK     0     -48.542   2.479  20.421  0.00  0.00     0.180 C 
HETATM    4  C   UNK     0     -49.846   3.269  20.531  0.00  0.00     0.183 C 
HETATM    5  C   UNK     0     -51.044   2.422  20.103  0.00  0.00     0.204 C 
HETATM    6  C   UNK     0     -50.784   1.727  18.766  0.00  0.00     0.291 C 
ENDROOT
BRANCH   2   7
HETATM    7  C   UNK     0     -47.192   0.916  18.960  0.00  0.00     0.205 C 
BRANCH   7   8
HETATM    8  O   UNK     0     -47.302   0.089  17.810  0.00  0.00    -0.356 OA
BRANCH   8   9
HETATM    9  C   UNK     0     -47.144  -1.286  18.142  0.00  0.00     0.291 C 
HETATM   10  O   UNK     0     -45.907  -1.548  18.813  0.00  0.00    -0.351 OA
HETATM   11  C   UNK     0     -44.744  -1.294  18.018  0.00  0.00     0.152 C 
HETATM   12  C   UNK     0     -44.746  -2.154  16.746  0.00  0.00     0.178 C 
HETATM   13  C   UNK     0     -43.531  -1.580  18.900  0.00  0.00     0.042 C 
HETATM   14  C   UNK     0     -46.047  -1.942  15.972  0.00  0.00     0.183 C 
HETATM   15  C   UNK     0     -47.263  -2.138  16.879  0.00  0.00     0.204 C 
BRANCH  12  16
HETATM   16  O   UNK     0     -43.661  -1.785  15.900  0.00  0.00    -0.390 OA
HETATM   17  H   UNK     0     -42.836  -1.879  16.408  0.00  0.00     0.210 HD
ENDBRANCH  12  16
BRANCH  14  18
HETATM   18  O   UNK     0     -46.100  -2.861  14.884  0.00  0.00    -0.390 OA
HETATM   19  H   UNK     0     -45.491  -2.539  14.197  0.00  0.00     0.210 HD
ENDBRANCH  14  18
BRANCH  15  20
HETATM   20  O   UNK     0     -47.353  -3.505  17.284  0.00  0.00    -0.388 OA
HETATM   21  H   UNK     0     -48.294  -3.710  17.420  0.00  0.00     0.210 HD
ENDBRANCH  15  20
ENDBRANCH   8   9
ENDBRANCH   7   8
ENDBRANCH   2   7
BRANCH   6  22
HETATM   22  O   UNK     0     -51.881   0.850  18.507  0.00  0.00    -0.358 OA
BRANCH  22  23
HETATM   23  C   UNK     0     -51.433  -0.399  18.003  0.00  0.00     0.175 C 
BRANCH  23  24
HETATM   24  C   UNK     0     -52.050  -0.651  16.631  0.00  0.00     0.065 C 
BRANCH  24  25
HETATM   25  C   UNK     0     -51.054  -1.218  15.650  0.00  0.00    -0.053 A 
HETATM   26  C   UNK     0     -50.207  -0.365  14.944  0.00  0.00     0.046 A 
HETATM   27  C   UNK     0     -49.285  -0.890  14.037  0.00  0.00     0.099 A 
HETATM   28  C   UNK     0     -49.212  -2.268  13.837  0.00  0.00     0.098 A 
HETATM   29  C   UNK     0     -50.059  -3.121  14.543  0.00  0.00     0.040 A 
HETATM   30  C   UNK     0     -50.980  -2.597  15.450  0.00  0.00     0.010 A 
BRANCH  27  31
HETATM   31  O   UNK     0     -48.462  -0.046  13.355  0.00  0.00    -0.358 OA
HETATM   32  H   UNK     0     -47.541  -0.227  13.611  0.00  0.00     0.217 HD
ENDBRANCH  27  31
BRANCH  28  33
HETATM   33  O   UNK     0     -48.316  -2.793  12.954  0.00  0.00    -0.358 OA
HETATM   34  H   UNK     0     -48.420  -2.348  12.095  0.00  0.00     0.217 HD
ENDBRANCH  28  33
ENDBRANCH  24  25
ENDBRANCH  23  24
ENDBRANCH  22  23
ENDBRANCH   6  22
BRANCH   3  35
HETATM   35  O   UNK     0     -47.439   3.362  20.604  0.00  0.00    -0.390 OA
HETATM   36  H   UNK     0     -47.252   3.417  21.557  0.00  0.00     0.210 HD
ENDBRANCH   3  35
BRANCH   5  37
HETATM   37  O   UNK     0     -52.190   3.260  19.955  0.00  0.00    -0.388 OA
HETATM   38  H   UNK     0     -52.288   3.783  20.770  0.00  0.00     0.210 HD
ENDBRANCH   5  37
BRANCH   4  39
HETATM   39  O   UNK     0     -50.008   3.667  21.894  0.00  0.00    -0.390 OA
HETATM   40  H   UNK     0     -49.810   2.901  22.459  0.00  0.00     0.210 HD
ENDBRANCH   4  39
TORSDOF 15
ENDMDL
MODEL 7
REMARK VINA RESULT:      -6.4      2.618      4.178
REMARK  15 active torsions:
REMARK  status: ('A' for Active; 'I' for Inactive)
REMARK    1  A    between atoms: O_2  and  C_18 
REMARK    2  A    between atoms: O_2  and  C_22 
REMARK    3  A    between atoms: O_4  and  C_14 
REMARK    4  A    between atoms: O_5  and  C_21 
REMARK    5  A    between atoms: O_5  and  C_25 
REMARK    6  A    between atoms: O_6  and  C_15 
REMARK    7  A    between atoms: O_7  and  C_16 
REMARK    8  A    between atoms: O_8  and  C_17 
REMARK    9  A    between atoms: O_9  and  C_19 
REMARK   10  A    between atoms: O_10  and  C_20 
REMARK   11  A    between atoms: O_11  and  C_30 
REMARK   12  A    between atoms: O_12  and  C_32 
REMARK   13  A    between atoms: C_13  and  C_22 
REMARK   14  A    between atoms: C_25  and  C_26 
REMARK   15  A    between atoms: C_26  and  C_27 
ROOT
HETATM    1  O   UNK     0     -49.023  -0.843  16.691  0.00  0.00    -0.348 OA
HETATM    2  C   UNK     0     -49.885  -0.490  15.607  0.00  0.00     0.180 C 
HETATM    3  C   UNK     0     -49.775  -1.534  14.493  0.00  0.00     0.180 C 
HETATM    4  C   UNK     0     -48.324  -1.691  14.038  0.00  0.00     0.183 C 
HETATM    5  C   UNK     0     -47.389  -1.887  15.231  0.00  0.00     0.204 C 
HETATM    6  C   UNK     0     -47.647  -0.844  16.317  0.00  0.00     0.291 C 
ENDROOT
BRANCH   2   7
HETATM    7  C   UNK     0     -51.304  -0.400  16.158  0.00  0.00     0.205 C 
BRANCH   7   8
HETATM    8  O   UNK     0     -52.143   0.195  15.178  0.00  0.00    -0.356 OA
BRANCH   8   9
HETATM    9  C   UNK     0     -52.766   1.376  15.674  0.00  0.00     0.291 C 
HETATM   10  O   UNK     0     -54.143   1.468  15.295  0.00  0.00    -0.351 OA
HETATM   11  C   UNK     0     -54.356   1.584  13.884  0.00  0.00     0.152 C 
HETATM   12  C   UNK     0     -53.660   2.831  13.322  0.00  0.00     0.178 C 
HETATM   13  C   UNK     0     -55.867   1.624  13.664  0.00  0.00     0.042 C 
HETATM   14  C   UNK     0     -52.178   2.817  13.695  0.00  0.00     0.183 C 
HETATM   15  C   UNK     0     -51.993   2.605  15.198  0.00  0.00     0.204 C 
BRANCH  12  16
HETATM   16  O   UNK     0     -53.760   2.853  11.901  0.00  0.00    -0.390 OA
HETATM   17  H   UNK     0     -54.640   3.196  11.665  0.00  0.00     0.210 HD
ENDBRANCH  12  16
BRANCH  14  18
HETATM   18  O   UNK     0     -51.584   4.053  13.303  0.00  0.00    -0.390 OA
HETATM   19  H   UNK     0     -51.660   4.121  12.336  0.00  0.00     0.210 HD
ENDBRANCH  14  18
BRANCH  15  20
HETATM   20  O   UNK     0     -52.490   3.736  15.915  0.00  0.00    -0.388 OA
HETATM   21  H   UNK     0     -53.433   3.580  16.092  0.00  0.00     0.210 HD
ENDBRANCH  15  20
ENDBRANCH   8   9
ENDBRANCH   7   8
ENDBRANCH   2   7
BRANCH   6  22
HETATM   22  O   UNK     0     -46.841  -1.177  17.448  0.00  0.00    -0.358 OA
BRANCH  22  23
HETATM   23  C   UNK     0     -46.230  -0.024  18.004  0.00  0.00     0.175 C 
BRANCH  23  24
HETATM   24  C   UNK     0     -44.775   0.053  17.556  0.00  0.00     0.065 C 
BRANCH  24  25
HETATM   25  C   UNK     0     -43.847   0.444  18.680  0.00  0.00    -0.053 A 
HETATM   26  C   UNK     0     -43.253   1.706  18.687  0.00  0.00     0.046 A 
HETATM   27  C   UNK     0     -42.397   2.067  19.728  0.00  0.00     0.099 A 
HETATM   28  C   UNK     0     -42.136   1.167  20.761  0.00  0.00     0.098 A 
HETATM   29  C   UNK     0     -42.731  -0.094  20.754  0.00  0.00     0.040 A 
HETATM   30  C   UNK     0     -43.587  -0.456  19.714  0.00  0.00     0.010 A 
BRANCH  27  31
HETATM   31  O   UNK     0     -41.824   3.303  19.725  0.00  0.00    -0.358 OA
HETATM   32  H   UNK     0     -40.860   3.205  19.811  0.00  0.00     0.217 HD
ENDBRANCH  27  31
BRANCH  28  33
HETATM   33  O   UNK     0     -41.302   1.509  21.783  0.00  0.00    -0.358 OA
HETATM   34  H   UNK     0     -40.394   1.579  21.441  0.00  0.00     0.217 HD
ENDBRANCH  28  33
ENDBRANCH  24  25
ENDBRANCH  23  24
ENDBRANCH  22  23
ENDBRANCH   6  22
BRANCH   3  35
HETATM   35  O   UNK     0     -50.575  -1.127  13.386  0.00  0.00    -0.390 OA
HETATM   36  H   UNK     0     -50.435  -1.764  12.664  0.00  0.00     0.210 HD
ENDBRANCH   3  35
BRANCH   5  37
HETATM   37  O   UNK     0     -46.034  -1.755  14.798  0.00  0.00    -0.388 OA
HETATM   38  H   UNK     0     -45.820  -2.522  14.240  0.00  0.00     0.210 HD
ENDBRANCH   5  37
BRANCH   4  39
HETATM   39  O   UNK     0     -48.250  -2.834  13.183  0.00  0.00    -0.390 OA
HETATM   40  H   UNK     0     -49.005  -2.803  12.571  0.00  0.00     0.210 HD
ENDBRANCH   4  39
TORSDOF 15
ENDMDL
MODEL 8
REMARK VINA RESULT:      -6.4      2.242      3.920
REMARK  15 active torsions:
REMARK  status: ('A' for Active; 'I' for Inactive)
REMARK    1  A    between atoms: O_2  and  C_18 
REMARK    2  A    between atoms: O_2  and  C_22 
REMARK    3  A    between atoms: O_4  and  C_14 
REMARK    4  A    between atoms: O_5  and  C_21 
REMARK    5  A    between atoms: O_5  and  C_25 
REMARK    6  A    between atoms: O_6  and  C_15 
REMARK    7  A    between atoms: O_7  and  C_16 
REMARK    8  A    between atoms: O_8  and  C_17 
REMARK    9  A    between atoms: O_9  and  C_19 
REMARK   10  A    between atoms: O_10  and  C_20 
REMARK   11  A    between atoms: O_11  and  C_30 
REMARK   12  A    between atoms: O_12  and  C_32 
REMARK   13  A    between atoms: C_13  and  C_22 
REMARK   14  A    between atoms: C_25  and  C_26 
REMARK   15  A    between atoms: C_26  and  C_27 
ROOT
HETATM    1  O   UNK     0     -47.620   0.167  19.263  0.00  0.00    -0.348 OA
HETATM    2  C   UNK     0     -48.972  -0.236  19.487  0.00  0.00     0.180 C 
HETATM    3  C   UNK     0     -49.928   0.722  18.773  0.00  0.00     0.180 C 
HETATM    4  C   UNK     0     -49.683   2.165  19.216  0.00  0.00     0.183 C 
HETATM    5  C   UNK     0     -48.199   2.522  19.142  0.00  0.00     0.204 C 
HETATM    6  C   UNK     0     -47.335   1.453  19.810  0.00  0.00     0.291 C 
ENDROOT
BRANCH   2   7
HETATM    7  C   UNK     0     -49.117  -1.665  18.976  0.00  0.00     0.205 C 
BRANCH   7   8
HETATM    8  O   UNK     0     -49.575  -1.631  17.631  0.00  0.00    -0.356 OA
BRANCH   8   9
HETATM    9  C   UNK     0     -48.926  -2.617  16.835  0.00  0.00     0.291 C 
HETATM   10  O   UNK     0     -47.566  -2.276  16.545  0.00  0.00    -0.351 OA
HETATM   11  C   UNK     0     -47.414  -1.097  15.747  0.00  0.00     0.152 C 
HETATM   12  C   UNK     0     -48.129  -1.249  14.397  0.00  0.00     0.178 C 
HETATM   13  C   UNK     0     -45.915  -0.864  15.578  0.00  0.00     0.042 C 
HETATM   14  C   UNK     0     -49.594  -1.627  14.618  0.00  0.00     0.183 C 
HETATM   15  C   UNK     0     -49.713  -2.838  15.545  0.00  0.00     0.204 C 
BRANCH  12  16
HETATM   16  O   UNK     0     -48.092  -0.020  13.678  0.00  0.00    -0.390 OA
HETATM   17  H   UNK     0     -48.974   0.386  13.728  0.00  0.00     0.210 HD
ENDBRANCH  12  16
BRANCH  14  18
HETATM   18  O   UNK     0     -50.198  -1.918  13.360  0.00  0.00    -0.390 OA
HETATM   19  H   UNK     0     -49.484  -2.125  12.732  0.00  0.00     0.210 HD
ENDBRANCH  14  18
BRANCH  15  20
HETATM   20  O   UNK     0     -49.179  -3.998  14.904  0.00  0.00    -0.388 OA
HETATM   21  H   UNK     0     -49.861  -4.342  14.303  0.00  0.00     0.210 HD
ENDBRANCH  15  20
ENDBRANCH   8   9
ENDBRANCH   7   8
ENDBRANCH   2   7
BRANCH   6  22
HETATM   22  O   UNK     0     -45.966   1.784  19.574  0.00  0.00    -0.358 OA
BRANCH  22  23
HETATM   23  C   UNK     0     -45.238   0.662  19.102  0.00  0.00     0.175 C 
BRANCH  23  24
HETATM   24  C   UNK     0     -44.050   1.132  18.271  0.00  0.00     0.065 C 
BRANCH  24  25
HETATM   25  C   UNK     0     -42.880   1.553  19.127  0.00  0.00    -0.053 A 
HETATM   26  C   UNK     0     -42.155   2.699  18.804  0.00  0.00     0.046 A 
HETATM   27  C   UNK     0     -41.075   3.088  19.597  0.00  0.00     0.099 A 
HETATM   28  C   UNK     0     -40.721   2.330  20.713  0.00  0.00     0.098 A 
HETATM   29  C   UNK     0     -41.447   1.184  21.037  0.00  0.00     0.040 A 
HETATM   30  C   UNK     0     -42.527   0.795  20.245  0.00  0.00     0.010 A 
BRANCH  27  31
HETATM   31  O   UNK     0     -40.375   4.210  19.272  0.00  0.00    -0.358 OA
HETATM   32  H   UNK     0     -40.856   4.693  18.578  0.00  0.00     0.217 HD
ENDBRANCH  27  31
BRANCH  28  33
HETATM   33  O   UNK     0     -39.668   2.700  21.496  0.00  0.00    -0.358 OA
HETATM   34  H   UNK     0     -39.096   1.927  21.643  0.00  0.00     0.217 HD
ENDBRANCH  28  33
ENDBRANCH  24  25
ENDBRANCH  23  24
ENDBRANCH  22  23
ENDBRANCH   6  22
BRANCH   3  35
HETATM   35  O   UNK     0     -51.272   0.358  19.073  0.00  0.00    -0.390 OA
HETATM   36  H   UNK     0     -51.762   1.169  19.290  0.00  0.00     0.210 HD
ENDBRANCH   3  35
BRANCH   5  37
HETATM   37  O   UNK     0     -47.976   3.761  19.814  0.00  0.00    -0.388 OA
HETATM   38  H   UNK     0     -47.965   3.588  20.771  0.00  0.00     0.210 HD
ENDBRANCH   5  37
BRANCH   4  39
HETATM   39  O   UNK     0     -50.424   3.025  18.349  0.00  0.00    -0.390 OA
HETATM   40  H   UNK     0     -49.802   3.431  17.722  0.00  0.00     0.210 HD
ENDBRANCH   4  39
TORSDOF 15
ENDMDL
MODEL 9
REMARK VINA RESULT:      -6.3      3.211      5.116
REMARK  15 active torsions:
REMARK  status: ('A' for Active; 'I' for Inactive)
REMARK    1  A    between atoms: O_2  and  C_18 
REMARK    2  A    between atoms: O_2  and  C_22 
REMARK    3  A    between atoms: O_4  and  C_14 
REMARK    4  A    between atoms: O_5  and  C_21 
REMARK    5  A    between atoms: O_5  and  C_25 
REMARK    6  A    between atoms: O_6  and  C_15 
REMARK    7  A    between atoms: O_7  and  C_16 
REMARK    8  A    between atoms: O_8  and  C_17 
REMARK    9  A    between atoms: O_9  and  C_19 
REMARK   10  A    between atoms: O_10  and  C_20 
REMARK   11  A    between atoms: O_11  and  C_30 
REMARK   12  A    between atoms: O_12  and  C_32 
REMARK   13  A    between atoms: C_13  and  C_22 
REMARK   14  A    between atoms: C_25  and  C_26 
REMARK   15  A    between atoms: C_26  and  C_27 
ROOT
HETATM    1  O   UNK     0     -48.610  -1.561  17.071  0.00  0.00    -0.348 OA
HETATM    2  C   UNK     0     -49.792  -2.195  16.580  0.00  0.00     0.180 C 
HETATM    3  C   UNK     0     -49.483  -2.939  15.279  0.00  0.00     0.180 C 
HETATM    4  C   UNK     0     -48.873  -1.994  14.244  0.00  0.00     0.183 C 
HETATM    5  C   UNK     0     -47.721  -1.188  14.843  0.00  0.00     0.204 C 
HETATM    6  C   UNK     0     -48.114  -0.564  16.181  0.00  0.00     0.291 C 
ENDROOT
BRANCH   2   7
HETATM    7  C   UNK     0     -50.293  -3.141  17.667  0.00  0.00     0.205 C 
BRANCH   7   8
HETATM    8  O   UNK     0     -49.439  -4.275  17.722  0.00  0.00    -0.356 OA
BRANCH   8   9
HETATM    9  C   UNK     0     -50.181  -5.476  17.909  0.00  0.00     0.291 C 
HETATM   10  O   UNK     0     -50.500  -5.713  19.284  0.00  0.00    -0.351 OA
HETATM   11  C   UNK     0     -49.360  -5.929  20.122  0.00  0.00     0.152 C 
HETATM   12  C   UNK     0     -48.546  -7.140  19.643  0.00  0.00     0.178 C 
HETATM   13  C   UNK     0     -49.882  -6.117  21.544  0.00  0.00     0.042 C 
HETATM   14  C   UNK     0     -48.173  -6.972  18.170  0.00  0.00     0.183 C 
HETATM   15  C   UNK     0     -49.408  -6.656  17.324  0.00  0.00     0.204 C 
BRANCH  12  16
HETATM   16  O   UNK     0     -47.342  -7.254  20.396  0.00  0.00    -0.390 OA
HETATM   17  H   UNK     0     -46.622  -6.856  19.877  0.00  0.00     0.210 HD
ENDBRANCH  12  16
BRANCH  14  18
HETATM   18  O   UNK     0     -47.558  -8.171  17.702  0.00  0.00    -0.390 OA
HETATM   19  H   UNK     0     -48.120  -8.532  16.995  0.00  0.00     0.210 HD
ENDBRANCH  14  18
BRANCH  15  20
HETATM   20  O   UNK     0     -50.285  -7.783  17.303  0.00  0.00    -0.388 OA
HETATM   21  H   UNK     0     -49.830  -8.501  16.831  0.00  0.00     0.210 HD
ENDBRANCH  15  20
ENDBRANCH   8   9
ENDBRANCH   7   8
ENDBRANCH   2   7
BRANCH   6  22
HETATM   22  O   UNK     0     -46.951   0.047  16.740  0.00  0.00    -0.358 OA
BRANCH  22  23
HETATM   23  C   UNK     0     -46.066  -0.924  17.277  0.00  0.00     0.175 C 
BRANCH  23  24
HETATM   24  C   UNK     0     -44.628  -0.432  17.155  0.00  0.00     0.065 C 
BRANCH  24  25
HETATM   25  C   UNK     0     -44.028  -0.077  18.493  0.00  0.00    -0.053 A 
HETATM   26  C   UNK     0     -44.048  -1.003  19.535  0.00  0.00     0.046 A 
HETATM   27  C   UNK     0     -43.491  -0.674  20.771  0.00  0.00     0.099 A 
HETATM   28  C   UNK     0     -42.915   0.581  20.965  0.00  0.00     0.098 A 
HETATM   29  C   UNK     0     -42.895   1.507  19.923  0.00  0.00     0.040 A 
HETATM   30  C   UNK     0     -43.450   1.179  18.687  0.00  0.00     0.010 A 
BRANCH  27  31
HETATM   31  O   UNK     0     -43.515  -1.588  21.781  0.00  0.00    -0.358 OA
HETATM   32  H   UNK     0     -44.436  -1.728  22.059  0.00  0.00     0.217 HD
ENDBRANCH  27  31
BRANCH  28  33
HETATM   33  O   UNK     0     -42.368   0.914  22.168  0.00  0.00    -0.358 OA
HETATM   34  H   UNK     0     -41.741   0.219  22.434  0.00  0.00     0.217 HD
ENDBRANCH  28  33
ENDBRANCH  24  25
ENDBRANCH  23  24
ENDBRANCH  22  23
ENDBRANCH   6  22
BRANCH   3  35
HETATM   35  O   UNK     0     -50.687  -3.496  14.758  0.00  0.00    -0.390 OA
HETATM   36  H   UNK     0     -50.718  -3.307  13.805  0.00  0.00     0.210 HD
ENDBRANCH   3  35
BRANCH   5  37
HETATM   37  O   UNK     0     -47.362  -0.136  13.947  0.00  0.00    -0.388 OA
HETATM   38  H   UNK     0     -48.130   0.052  13.380  0.00  0.00     0.210 HD
ENDBRANCH   5  37
BRANCH   4  39
HETATM   39  O   UNK     0     -48.388  -2.783  13.157  0.00  0.00    -0.390 OA
HETATM   40  H   UNK     0     -47.427  -2.890  13.265  0.00  0.00     0.210 HD
ENDBRANCH   4  39
TORSDOF 15
ENDMDL
MODEL 10
REMARK VINA RESULT:      -6.3      3.186      4.695
REMARK  15 active torsions:
REMARK  status: ('A' for Active; 'I' for Inactive)
REMARK    1  A    between atoms: O_2  and  C_18 
REMARK    2  A    between atoms: O_2  and  C_22 
REMARK    3  A    between atoms: O_4  and  C_14 
REMARK    4  A    between atoms: O_5  and  C_21 
REMARK    5  A    between atoms: O_5  and  C_25 
REMARK    6  A    between atoms: O_6  and  C_15 
REMARK    7  A    between atoms: O_7  and  C_16 
REMARK    8  A    between atoms: O_8  and  C_17 
REMARK    9  A    between atoms: O_9  and  C_19 
REMARK   10  A    between atoms: O_10  and  C_20 
REMARK   11  A    between atoms: O_11  and  C_30 
REMARK   12  A    between atoms: O_12  and  C_32 
REMARK   13  A    between atoms: C_13  and  C_22 
REMARK   14  A    between atoms: C_25  and  C_26 
REMARK   15  A    between atoms: C_26  and  C_27 
ROOT
HETATM    1  O   UNK     0     -45.672   0.501  18.550  0.00  0.00    -0.348 OA
HETATM    2  C   UNK     0     -45.815  -0.148  17.286  0.00  0.00     0.180 C 
HETATM    3  C   UNK     0     -45.146  -1.524  17.326  0.00  0.00     0.180 C 
HETATM    4  C   UNK     0     -43.679  -1.402  17.740  0.00  0.00     0.183 C 
HETATM    5  C   UNK     0     -43.528  -0.549  18.998  0.00  0.00     0.204 C 
HETATM    6  C   UNK     0     -44.309   0.760  18.880  0.00  0.00     0.291 C 
ENDROOT
BRANCH   2   7
HETATM    7  C   UNK     0     -47.308  -0.255  16.990  0.00  0.00     0.205 C 
BRANCH   7   8
HETATM    8  O   UNK     0     -47.484  -0.764  15.675  0.00  0.00    -0.356 OA
BRANCH   8   9
HETATM    9  C   UNK     0     -48.822  -0.588  15.224  0.00  0.00     0.291 C 
HETATM   10  O   UNK     0     -49.782  -1.138  16.133  0.00  0.00    -0.351 OA
HETATM   11  C   UNK     0     -49.699  -2.559  16.284  0.00  0.00     0.152 C 
HETATM   12  C   UNK     0     -49.907  -3.270  14.940  0.00  0.00     0.178 C 
HETATM   13  C   UNK     0     -50.754  -2.959  17.312  0.00  0.00     0.042 C 
HETATM   14  C   UNK     0     -48.923  -2.729  13.902  0.00  0.00     0.183 C 
HETATM   15  C   UNK     0     -48.983  -1.201  13.834  0.00  0.00     0.204 C 
BRANCH  12  16
HETATM   16  O   UNK     0     -49.678  -4.669  15.081  0.00  0.00    -0.390 OA
HETATM   17  H   UNK     0     -48.747  -4.799  15.331  0.00  0.00     0.210 HD
ENDBRANCH  12  16
BRANCH  14  18
HETATM   18  O   UNK     0     -49.235  -3.283  12.626  0.00  0.00    -0.390 OA
HETATM   19  H   UNK     0     -50.201  -3.387  12.579  0.00  0.00     0.210 HD
ENDBRANCH  14  18
BRANCH  15  20
HETATM   20  O   UNK     0     -50.248  -0.785  13.319  0.00  0.00    -0.388 OA
HETATM   21  H   UNK     0     -50.921  -0.987  13.991  0.00  0.00     0.210 HD
ENDBRANCH  15  20
ENDBRANCH   8   9
ENDBRANCH   7   8
ENDBRANCH   2   7
BRANCH   6  22
HETATM   22  O   UNK     0     -44.236   1.431  20.139  0.00  0.00    -0.358 OA
BRANCH  22  23
HETATM   23  C   UNK     0     -45.425   1.246  20.891  0.00  0.00     0.175 C 
BRANCH  23  24
HETATM   24  C   UNK     0     -45.722   2.502  21.701  0.00  0.00     0.065 C 
BRANCH  24  25
HETATM   25  C   UNK     0     -47.158   2.947  21.566  0.00  0.00    -0.053 A 
HETATM   26  C   UNK     0     -47.804   2.855  20.333  0.00  0.00     0.046 A 
HETATM   27  C   UNK     0     -49.132   3.264  20.210  0.00  0.00     0.099 A 
HETATM   28  C   UNK     0     -49.813   3.766  21.318  0.00  0.00     0.098 A 
HETATM   29  C   UNK     0     -49.167   3.858  22.551  0.00  0.00     0.040 A 
HETATM   30  C   UNK     0     -47.840   3.448  22.675  0.00  0.00     0.010 A 
BRANCH  27  31
HETATM   31  O   UNK     0     -49.753   3.167  19.001  0.00  0.00    -0.358 OA
HETATM   32  H   UNK     0     -49.326   3.778  18.376  0.00  0.00     0.217 HD
ENDBRANCH  27  31
BRANCH  28  33
HETATM   33  O   UNK     0     -51.111   4.169  21.210  0.00  0.00    -0.358 OA
HETATM   34  H   UNK     0     -51.629   3.457  20.797  0.00  0.00     0.217 HD
ENDBRANCH  28  33
ENDBRANCH  24  25
ENDBRANCH  23  24
ENDBRANCH  22  23
ENDBRANCH   6  22
BRANCH   3  35
HETATM   35  O   UNK     0     -45.224  -2.124  16.036  0.00  0.00    -0.390 OA
HETATM   36  H   UNK     0     -44.358  -2.517  15.834  0.00  0.00     0.210 HD
ENDBRANCH   3  35
BRANCH   5  37
HETATM   37  O   UNK     0     -42.150  -0.231  19.194  0.00  0.00    -0.388 OA
HETATM   38  H   UNK     0     -41.865  -0.629  20.034  0.00  0.00     0.210 HD
ENDBRANCH   5  37
BRANCH   4  39
HETATM   39  O   UNK     0     -43.181  -2.717  17.994  0.00  0.00    -0.390 OA
HETATM   40  H   UNK     0     -43.551  -3.023  18.840  0.00  0.00     0.210 HD
ENDBRANCH   4  39
TORSDOF 15
ENDMDL
