MODEL 1
REMARK VINA RESULT:      -6.4      0.000      0.000
REMARK  4 active torsions:
REMARK  status: ('A' for Active; 'I' for Inactive)
REMARK    1  A    between atoms: O_2  and  C_9 
REMARK    2  A    between atoms: O_3  and  C_11 
REMARK    3  A    between atoms: O_4  and  C_14 
REMARK    4  A    between atoms: C_8  and  C_13 
ROOT
HETATM    1  O   UNK     0     -44.290   0.193  17.798  0.00  0.00    -0.306 OA
HETATM    2  O   UNK     0     -47.802   1.737  19.168  0.00  0.00    -0.287 OA
HETATM    3  C   UNK     0     -46.718   0.207  17.731  0.00  0.00     0.084 A 
HETATM    4  C   UNK     0     -45.482  -0.277  17.306  0.00  0.00     0.129 A 
HETATM    5  C   UNK     0     -44.320   1.199  18.751  0.00  0.00     0.090 A 
HETATM    6  C   UNK     0     -45.420  -1.285  16.344  0.00  0.00     0.136 A 
HETATM    7  C   UNK     0     -46.754   1.267  18.749  0.00  0.00     0.190 A 
HETATM    8  C   UNK     0     -47.900  -0.310  17.196  0.00  0.00     0.085 A 
HETATM    9  C   UNK     0     -45.445   1.741  19.243  0.00  0.00     0.094 A 
HETATM   10  C   UNK     0     -46.599  -1.805  15.807  0.00  0.00     0.104 A 
HETATM   11  C   UNK     0     -47.836  -1.318  16.233  0.00  0.00     0.077 A 
ENDROOT
BRANCH   5  12
HETATM   12  C   UNK     0     -42.984   1.627  19.215  0.00  0.00    -0.002 A 
HETATM   13  C   UNK     0     -42.399   2.785  18.698  0.00  0.00     0.014 A 
HETATM   14  C   UNK     0     -41.139   3.190  19.135  0.00  0.00     0.001 A 
HETATM   15  C   UNK     0     -40.458   2.436  20.092  0.00  0.00     0.000 A 
HETATM   16  C   UNK     0     -41.038   1.279  20.610  0.00  0.00     0.001 A 
HETATM   17  C   UNK     0     -42.299   0.875  20.172  0.00  0.00     0.014 A 
ENDBRANCH   5  12
BRANCH   6  18
HETATM   18  O   UNK     0     -44.215  -1.765  15.924  0.00  0.00    -0.351 OA
HETATM   19  C   UNK     0     -43.862  -1.527  14.563  0.00  0.00     0.210 C 
ENDBRANCH   6  18
BRANCH   8  20
HETATM   20  O   UNK     0     -49.131   0.128  17.578  0.00  0.00    -0.360 OA
HETATM   21  H   UNK     0     -49.285  -0.061  18.516  0.00  0.00     0.217 HD
ENDBRANCH   8  20
BRANCH  10  22
HETATM   22  O   UNK     0     -46.556  -2.788  14.866  0.00  0.00    -0.358 OA
HETATM   23  H   UNK     0     -46.304  -3.625  15.293  0.00  0.00     0.217 HD
ENDBRANCH  10  22
TORSDOF 4
ENDMDL
MODEL 2
REMARK VINA RESULT:      -6.4      2.830      4.539
REMARK  4 active torsions:
REMARK  status: ('A' for Active; 'I' for Inactive)
REMARK    1  A    between atoms: O_2  and  C_9 
REMARK    2  A    between atoms: O_3  and  C_11 
REMARK    3  A    between atoms: O_4  and  C_14 
REMARK    4  A    between atoms: C_8  and  C_13 
ROOT
HETATM    1  O   UNK     0     -47.059  -2.409  17.127  0.00  0.00    -0.306 OA
HETATM    2  O   UNK     0     -48.085  -0.263  13.819  0.00  0.00    -0.287 OA
HETATM    3  C   UNK     0     -48.568  -2.079  15.252  0.00  0.00     0.084 A 
HETATM    4  C   UNK     0     -48.162  -2.769  16.393  0.00  0.00     0.129 A 
HETATM    5  C   UNK     0     -46.314  -1.318  16.707  0.00  0.00     0.090 A 
HETATM    6  C   UNK     0     -48.888  -3.874  16.836  0.00  0.00     0.136 A 
HETATM    7  C   UNK     0     -47.785  -0.916  14.810  0.00  0.00     0.190 A 
HETATM    8  C   UNK     0     -49.700  -2.489  14.544  0.00  0.00     0.085 A 
HETATM    9  C   UNK     0     -46.607  -0.572  15.631  0.00  0.00     0.094 A 
HETATM   10  C   UNK     0     -50.020  -4.288  16.132  0.00  0.00     0.104 A 
HETATM   11  C   UNK     0     -50.425  -3.596  14.989  0.00  0.00     0.077 A 
ENDROOT
BRANCH   5  12
HETATM   12  C   UNK     0     -45.153  -1.016  17.570  0.00  0.00    -0.002 A 
HETATM   13  C   UNK     0     -44.306  -2.044  17.992  0.00  0.00     0.014 A 
HETATM   14  C   UNK     0     -43.211  -1.760  18.806  0.00  0.00     0.001 A 
HETATM   15  C   UNK     0     -42.958  -0.446  19.201  0.00  0.00     0.000 A 
HETATM   16  C   UNK     0     -43.801   0.583  18.783  0.00  0.00     0.001 A 
HETATM   17  C   UNK     0     -44.898   0.298  17.968  0.00  0.00     0.014 A 
ENDBRANCH   5  12
BRANCH   6  18
HETATM   18  O   UNK     0     -48.497  -4.554  17.952  0.00  0.00    -0.351 OA
HETATM   19  C   UNK     0     -47.985  -5.871  17.761  0.00  0.00     0.210 C 
ENDBRANCH   6  18
BRANCH   8  20
HETATM   20  O   UNK     0     -50.137  -1.849  13.425  0.00  0.00    -0.360 OA
HETATM   21  H   UNK     0     -50.551  -2.477  12.814  0.00  0.00     0.217 HD
ENDBRANCH   8  20
BRANCH  10  22
HETATM   22  O   UNK     0     -50.739  -5.366  16.550  0.00  0.00    -0.358 OA
HETATM   23  H   UNK     0     -50.659  -5.446  17.516  0.00  0.00     0.217 HD
ENDBRANCH  10  22
TORSDOF 4
ENDMDL
MODEL 3
REMARK VINA RESULT:      -6.2      1.332      3.737
REMARK  4 active torsions:
REMARK  status: ('A' for Active; 'I' for Inactive)
REMARK    1  A    between atoms: O_2  and  C_9 
REMARK    2  A    between atoms: O_3  and  C_11 
REMARK    3  A    between atoms: O_4  and  C_14 
REMARK    4  A    between atoms: C_8  and  C_13 
ROOT
HETATM    1  O   UNK     0     -46.066   0.169  17.925  0.00  0.00    -0.306 OA
HETATM    2  O   UNK     0     -45.053  -2.159  14.739  0.00  0.00    -0.287 OA
HETATM    3  C   UNK     0     -46.770  -1.155  16.014  0.00  0.00     0.084 A 
HETATM    4  C   UNK     0     -47.047  -0.351  17.118  0.00  0.00     0.129 A 
HETATM    5  C   UNK     0     -44.744  -0.127  17.631  0.00  0.00     0.090 A 
HETATM    6  C   UNK     0     -48.368  -0.040  17.442  0.00  0.00     0.136 A 
HETATM    7  C   UNK     0     -45.369  -1.463  15.694  0.00  0.00     0.190 A 
HETATM    8  C   UNK     0     -47.809  -1.656  15.226  0.00  0.00     0.085 A 
HETATM    9  C   UNK     0     -44.352  -0.883  16.594  0.00  0.00     0.094 A 
HETATM   10  C   UNK     0     -49.410  -0.539  16.658  0.00  0.00     0.104 A 
HETATM   11  C   UNK     0     -49.131  -1.345  15.553  0.00  0.00     0.077 A 
ENDROOT
BRANCH   5  12
HETATM   12  C   UNK     0     -43.771   0.486  18.558  0.00  0.00    -0.002 A 
HETATM   13  C   UNK     0     -43.156  -0.289  19.544  0.00  0.00     0.014 A 
HETATM   14  C   UNK     0     -42.238   0.289  20.419  0.00  0.00     0.001 A 
HETATM   15  C   UNK     0     -41.931   1.646  20.311  0.00  0.00     0.000 A 
HETATM   16  C   UNK     0     -42.542   2.423  19.329  0.00  0.00     0.001 A 
HETATM   17  C   UNK     0     -43.462   1.844  18.453  0.00  0.00     0.014 A 
ENDBRANCH   5  12
BRANCH   6  18
HETATM   18  O   UNK     0     -48.647   0.746  18.520  0.00  0.00    -0.351 OA
HETATM   19  C   UNK     0     -48.866   0.084  19.764  0.00  0.00     0.210 C 
ENDBRANCH   6  18
BRANCH   8  20
HETATM   20  O   UNK     0     -47.591  -2.444  14.138  0.00  0.00    -0.360 OA
HETATM   21  H   UNK     0     -47.950  -2.029  13.340  0.00  0.00     0.217 HD
ENDBRANCH   8  20
BRANCH  10  22
HETATM   22  O   UNK     0     -50.705  -0.247  16.962  0.00  0.00    -0.358 OA
HETATM   23  H   UNK     0     -50.799  -0.189  17.928  0.00  0.00     0.217 HD
ENDBRANCH  10  22
TORSDOF 4
ENDMDL
MODEL 4
REMARK VINA RESULT:      -5.9      1.438      3.869
REMARK  4 active torsions:
REMARK  status: ('A' for Active; 'I' for Inactive)
REMARK    1  A    between atoms: O_2  and  C_9 
REMARK    2  A    between atoms: O_3  and  C_11 
REMARK    3  A    between atoms: O_4  and  C_14 
REMARK    4  A    between atoms: C_8  and  C_13 
ROOT
HETATM    1  O   UNK     0     -45.222   1.697  19.123  0.00  0.00    -0.306 OA
HETATM    2  O   UNK     0     -45.532  -1.568  16.705  0.00  0.00    -0.287 OA
HETATM    3  C   UNK     0     -46.637   0.138  17.911  0.00  0.00     0.084 A 
HETATM    4  C   UNK     0     -46.460   1.248  18.735  0.00  0.00     0.129 A 
HETATM    5  C   UNK     0     -44.102   1.009  18.681  0.00  0.00     0.090 A 
HETATM    6  C   UNK     0     -47.568   1.956  19.200  0.00  0.00     0.136 A 
HETATM    7  C   UNK     0     -45.451  -0.588  17.433  0.00  0.00     0.190 A 
HETATM    8  C   UNK     0     -47.921  -0.274  17.547  0.00  0.00     0.085 A 
HETATM    9  C   UNK     0     -44.144  -0.067  17.881  0.00  0.00     0.094 A 
HETATM   10  C   UNK     0     -48.853   1.548  18.839  0.00  0.00     0.104 A 
HETATM   11  C   UNK     0     -49.029   0.436  18.014  0.00  0.00     0.077 A 
ENDROOT
BRANCH   5  12
HETATM   12  C   UNK     0     -42.824   1.579  19.152  0.00  0.00    -0.002 A 
HETATM   13  C   UNK     0     -42.065   0.904  20.112  0.00  0.00     0.014 A 
HETATM   14  C   UNK     0     -40.858   1.441  20.557  0.00  0.00     0.001 A 
HETATM   15  C   UNK     0     -40.405   2.656  20.043  0.00  0.00     0.000 A 
HETATM   16  C   UNK     0     -41.158   3.334  19.085  0.00  0.00     0.001 A 
HETATM   17  C   UNK     0     -42.366   2.796  18.640  0.00  0.00     0.014 A 
ENDBRANCH   5  12
BRANCH   6  18
HETATM   18  O   UNK     0     -47.403   3.043  20.006  0.00  0.00    -0.351 OA
HETATM   19  C   UNK     0     -47.394   2.810  21.413  0.00  0.00     0.210 C 
ENDBRANCH   6  18
BRANCH   8  20
HETATM   20  O   UNK     0     -48.147  -1.350  16.744  0.00  0.00    -0.360 OA
HETATM   21  H   UNK     0     -47.337  -1.870  16.637  0.00  0.00     0.217 HD
ENDBRANCH   8  20
BRANCH  10  22
HETATM   22  O   UNK     0     -49.946   2.228  19.285  0.00  0.00    -0.358 OA
HETATM   23  H   UNK     0     -50.104   1.996  20.217  0.00  0.00     0.217 HD
ENDBRANCH  10  22
TORSDOF 4
ENDMDL
MODEL 5
REMARK VINA RESULT:      -5.8      2.161      4.364
REMARK  4 active torsions:
REMARK  status: ('A' for Active; 'I' for Inactive)
REMARK    1  A    between atoms: O_2  and  C_9 
REMARK    2  A    between atoms: O_3  and  C_11 
REMARK    3  A    between atoms: O_4  and  C_14 
REMARK    4  A    between atoms: C_8  and  C_13 
ROOT
HETATM    1  O   UNK     0     -46.829   0.830  18.251  0.00  0.00    -0.306 OA
HETATM    2  O   UNK     0     -43.031  -0.531  18.816  0.00  0.00    -0.287 OA
HETATM    3  C   UNK     0     -45.011  -0.611  17.530  0.00  0.00     0.084 A 
HETATM    4  C   UNK     0     -46.302  -0.103  17.394  0.00  0.00     0.129 A 
HETATM    5  C   UNK     0     -46.044   1.278  19.303  0.00  0.00     0.090 A 
HETATM    6  C   UNK     0     -47.118  -0.540  16.349  0.00  0.00     0.136 A 
HETATM    7  C   UNK     0     -44.173  -0.130  18.638  0.00  0.00     0.190 A 
HETATM    8  C   UNK     0     -44.526  -1.559  16.626  0.00  0.00     0.085 A 
HETATM    9  C   UNK     0     -44.787   0.870  19.534  0.00  0.00     0.094 A 
HETATM   10  C   UNK     0     -46.637  -1.487  15.444  0.00  0.00     0.104 A 
HETATM   11  C   UNK     0     -45.344  -1.995  15.582  0.00  0.00     0.077 A 
ENDROOT
BRANCH   5  12
HETATM   12  C   UNK     0     -46.706   2.282  20.160  0.00  0.00    -0.002 A 
HETATM   13  C   UNK     0     -47.804   3.001  19.680  0.00  0.00     0.014 A 
HETATM   14  C   UNK     0     -48.430   3.948  20.488  0.00  0.00     0.001 A 
HETATM   15  C   UNK     0     -47.960   4.181  21.781  0.00  0.00     0.000 A 
HETATM   16  C   UNK     0     -46.864   3.466  22.264  0.00  0.00     0.001 A 
HETATM   17  C   UNK     0     -46.238   2.518  21.455  0.00  0.00     0.014 A 
ENDBRANCH   5  12
BRANCH   6  18
HETATM   18  O   UNK     0     -48.381  -0.047  16.209  0.00  0.00    -0.351 OA
HETATM   19  C   UNK     0     -49.432  -0.772  16.845  0.00  0.00     0.210 C 
ENDBRANCH   6  18
BRANCH   8  20
HETATM   20  O   UNK     0     -43.273  -2.084  16.715  0.00  0.00    -0.360 OA
HETATM   21  H   UNK     0     -42.673  -1.641  16.097  0.00  0.00     0.217 HD
ENDBRANCH   8  20
BRANCH  10  22
HETATM   22  O   UNK     0     -47.420  -1.925  14.420  0.00  0.00    -0.358 OA
HETATM   23  H   UNK     0     -47.797  -1.156  13.956  0.00  0.00     0.217 HD
ENDBRANCH  10  22
TORSDOF 4
ENDMDL
MODEL 6
REMARK VINA RESULT:      -5.6      3.389      5.890
REMARK  4 active torsions:
REMARK  status: ('A' for Active; 'I' for Inactive)
REMARK    1  A    between atoms: O_2  and  C_9 
REMARK    2  A    between atoms: O_3  and  C_11 
REMARK    3  A    between atoms: O_4  and  C_14 
REMARK    4  A    between atoms: C_8  and  C_13 
ROOT
HETATM    1  O   UNK     0     -48.689  -1.931  16.268  0.00  0.00    -0.306 OA
HETATM    2  O   UNK     0     -48.974  -5.947  16.896  0.00  0.00    -0.287 OA
HETATM    3  C   UNK     0     -49.999  -3.970  16.104  0.00  0.00     0.084 A 
HETATM    4  C   UNK     0     -49.835  -2.599  15.916  0.00  0.00     0.129 A 
HETATM    5  C   UNK     0     -47.654  -2.654  16.842  0.00  0.00     0.090 A 
HETATM    6  C   UNK     0     -50.861  -1.845  15.346  0.00  0.00     0.136 A 
HETATM    7  C   UNK     0     -48.900  -4.741  16.704  0.00  0.00     0.190 A 
HETATM    8  C   UNK     0     -51.188  -4.598  15.726  0.00  0.00     0.085 A 
HETATM    9  C   UNK     0     -47.690  -3.976  17.067  0.00  0.00     0.094 A 
HETATM   10  C   UNK     0     -52.051  -2.467  14.968  0.00  0.00     0.104 A 
HETATM   11  C   UNK     0     -52.214  -3.841  15.157  0.00  0.00     0.077 A 
ENDROOT
BRANCH   5  12
HETATM   12  C   UNK     0     -46.467  -1.839  17.176  0.00  0.00    -0.002 A 
HETATM   13  C   UNK     0     -46.580  -0.453  17.302  0.00  0.00     0.014 A 
HETATM   14  C   UNK     0     -45.461   0.316  17.618  0.00  0.00     0.001 A 
HETATM   15  C   UNK     0     -44.224  -0.300  17.810  0.00  0.00     0.000 A 
HETATM   16  C   UNK     0     -44.107  -1.684  17.686  0.00  0.00     0.001 A 
HETATM   17  C   UNK     0     -45.227  -2.453  17.370  0.00  0.00     0.014 A 
ENDBRANCH   5  12
BRANCH   6  18
HETATM   18  O   UNK     0     -50.708  -0.503  15.159  0.00  0.00    -0.351 OA
HETATM   19  C   UNK     0     -50.115  -0.085  13.931  0.00  0.00     0.210 C 
ENDBRANCH   6  18
BRANCH   8  20
HETATM   20  O   UNK     0     -51.397  -5.933  15.888  0.00  0.00    -0.360 OA
HETATM   21  H   UNK     0     -50.565  -6.385  16.098  0.00  0.00     0.217 HD
ENDBRANCH   8  20
BRANCH  10  22
HETATM   22  O   UNK     0     -53.063  -1.746  14.411  0.00  0.00    -0.358 OA
HETATM   23  H   UNK     0     -53.227  -2.072  13.509  0.00  0.00     0.217 HD
ENDBRANCH  10  22
TORSDOF 4
ENDMDL
MODEL 7
REMARK VINA RESULT:      -5.5     15.182     18.771
REMARK  4 active torsions:
REMARK  status: ('A' for Active; 'I' for Inactive)
REMARK    1  A    between atoms: O_2  and  C_9 
REMARK    2  A    between atoms: O_3  and  C_11 
REMARK    3  A    between atoms: O_4  and  C_14 
REMARK    4  A    between atoms: C_8  and  C_13 
ROOT
HETATM    1  O   UNK     0     -57.564  -1.479   5.531  0.00  0.00    -0.306 OA
HETATM    2  O   UNK     0     -60.754  -4.008   5.359  0.00  0.00    -0.287 OA
HETATM    3  C   UNK     0     -58.970  -3.125   6.633  0.00  0.00     0.084 A 
HETATM    4  C   UNK     0     -57.893  -2.240   6.624  0.00  0.00     0.129 A 
HETATM    5  C   UNK     0     -58.333  -1.605   4.384  0.00  0.00     0.090 A 
HETATM    6  C   UNK     0     -57.098  -2.097   7.762  0.00  0.00     0.136 A 
HETATM    7  C   UNK     0     -59.793  -3.253   5.421  0.00  0.00     0.190 A 
HETATM    8  C   UNK     0     -59.259  -3.874   7.775  0.00  0.00     0.085 A 
HETATM    9  C   UNK     0     -59.396  -2.415   4.272  0.00  0.00     0.094 A 
HETATM   10  C   UNK     0     -57.383  -2.844   8.906  0.00  0.00     0.104 A 
HETATM   11  C   UNK     0     -58.462  -3.730   8.912  0.00  0.00     0.077 A 
ENDROOT
BRANCH   5  12
HETATM   12  C   UNK     0     -57.895  -0.738   3.270  0.00  0.00    -0.002 A 
HETATM   13  C   UNK     0     -57.417   0.549   3.529  0.00  0.00     0.014 A 
HETATM   14  C   UNK     0     -57.003   1.368   2.479  0.00  0.00     0.001 A 
HETATM   15  C   UNK     0     -57.065   0.901   1.165  0.00  0.00     0.000 A 
HETATM   16  C   UNK     0     -57.541  -0.383   0.903  0.00  0.00     0.001 A 
HETATM   17  C   UNK     0     -57.955  -1.202   1.954  0.00  0.00     0.014 A 
ENDBRANCH   5  12
BRANCH   6  18
HETATM   18  O   UNK     0     -56.043  -1.233   7.761  0.00  0.00    -0.351 OA
HETATM   19  C   UNK     0     -56.293   0.094   8.220  0.00  0.00     0.210 C 
ENDBRANCH   6  18
BRANCH   8  20
HETATM   20  O   UNK     0     -60.300  -4.750   7.834  0.00  0.00    -0.360 OA
HETATM   21  H   UNK     0     -60.997  -4.493   7.213  0.00  0.00     0.217 HD
ENDBRANCH   8  20
BRANCH  10  22
HETATM   22  O   UNK     0     -56.616  -2.718  10.023  0.00  0.00    -0.358 OA
HETATM   23  H   UNK     0     -56.756  -3.493  10.594  0.00  0.00     0.217 HD
ENDBRANCH  10  22
TORSDOF 4
ENDMDL
MODEL 8
REMARK VINA RESULT:      -5.4      2.632      4.592
REMARK  4 active torsions:
REMARK  status: ('A' for Active; 'I' for Inactive)
REMARK    1  A    between atoms: O_2  and  C_9 
REMARK    2  A    between atoms: O_3  and  C_11 
REMARK    3  A    between atoms: O_4  and  C_14 
REMARK    4  A    between atoms: C_8  and  C_13 
ROOT
HETATM    1  O   UNK     0     -47.902   0.318  17.642  0.00  0.00    -0.306 OA
HETATM    2  O   UNK     0     -44.459  -1.402  16.306  0.00  0.00    -0.287 OA
HETATM    3  C   UNK     0     -46.802  -1.190  16.087  0.00  0.00     0.084 A 
HETATM    4  C   UNK     0     -47.941  -0.566  16.593  0.00  0.00     0.129 A 
HETATM    5  C   UNK     0     -46.676   0.593  18.228  0.00  0.00     0.090 A 
HETATM    6  C   UNK     0     -49.189  -0.828  16.027  0.00  0.00     0.136 A 
HETATM    7  C   UNK     0     -45.499  -0.893  16.700  0.00  0.00     0.190 A 
HETATM    8  C   UNK     0     -46.901  -2.080  15.016  0.00  0.00     0.085 A 
HETATM    9  C   UNK     0     -45.511   0.062  17.827  0.00  0.00     0.094 A 
HETATM   10  C   UNK     0     -49.293  -1.717  14.957  0.00  0.00     0.104 A 
HETATM   11  C   UNK     0     -48.151  -2.342  14.452  0.00  0.00     0.077 A 
ENDROOT
BRANCH   5  12
HETATM   12  C   UNK     0     -46.748   1.559  19.343  0.00  0.00    -0.002 A 
HETATM   13  C   UNK     0     -45.826   1.491  20.391  0.00  0.00     0.014 A 
HETATM   14  C   UNK     0     -45.893   2.403  21.444  0.00  0.00     0.001 A 
HETATM   15  C   UNK     0     -46.882   3.387  21.452  0.00  0.00     0.000 A 
HETATM   16  C   UNK     0     -47.804   3.458  20.408  0.00  0.00     0.001 A 
HETATM   17  C   UNK     0     -47.737   2.546  19.355  0.00  0.00     0.014 A 
ENDBRANCH   5  12
BRANCH   6  18
HETATM   18  O   UNK     0     -50.308  -0.221  16.516  0.00  0.00    -0.351 OA
HETATM   19  C   UNK     0     -51.026  -0.912  17.537  0.00  0.00     0.210 C 
ENDBRANCH   6  18
BRANCH   8  20
HETATM   20  O   UNK     0     -45.819  -2.714  14.486  0.00  0.00    -0.360 OA
HETATM   21  H   UNK     0     -45.018  -2.182  14.610  0.00  0.00     0.217 HD
ENDBRANCH   8  20
BRANCH  10  22
HETATM   22  O   UNK     0     -50.504  -1.985  14.395  0.00  0.00    -0.358 OA
HETATM   23  H   UNK     0     -50.612  -2.949  14.316  0.00  0.00     0.217 HD
ENDBRANCH  10  22
TORSDOF 4
ENDMDL
MODEL 9
REMARK VINA RESULT:      -5.4      2.491      5.068
REMARK  4 active torsions:
REMARK  status: ('A' for Active; 'I' for Inactive)
REMARK    1  A    between atoms: O_2  and  C_9 
REMARK    2  A    between atoms: O_3  and  C_11 
REMARK    3  A    between atoms: O_4  and  C_14 
REMARK    4  A    between atoms: C_8  and  C_13 
ROOT
HETATM    1  O   UNK     0     -47.984  -0.171  17.498  0.00  0.00    -0.306 OA
HETATM    2  O   UNK     0     -48.561  -1.752  13.788  0.00  0.00    -0.287 OA
HETATM    3  C   UNK     0     -49.501  -0.674  15.668  0.00  0.00     0.084 A 
HETATM    4  C   UNK     0     -49.234  -0.150  16.932  0.00  0.00     0.129 A 
HETATM    5  C   UNK     0     -46.945  -0.746  16.782  0.00  0.00     0.090 A 
HETATM    6  C   UNK     0     -50.260   0.430  17.678  0.00  0.00     0.136 A 
HETATM    7  C   UNK     0     -48.399  -1.276  14.903  0.00  0.00     0.190 A 
HETATM    8  C   UNK     0     -50.793  -0.624  15.142  0.00  0.00     0.085 A 
HETATM    9  C   UNK     0     -47.075  -1.276  15.556  0.00  0.00     0.094 A 
HETATM   10  C   UNK     0     -51.554   0.481  17.156  0.00  0.00     0.104 A 
HETATM   11  C   UNK     0     -51.819  -0.045  15.890  0.00  0.00     0.077 A 
ENDROOT
BRANCH   5  12
HETATM   12  C   UNK     0     -45.643  -0.710  17.480  0.00  0.00    -0.002 A 
HETATM   13  C   UNK     0     -45.156   0.493  17.995  0.00  0.00     0.014 A 
HETATM   14  C   UNK     0     -43.928   0.527  18.654  0.00  0.00     0.001 A 
HETATM   15  C   UNK     0     -43.183  -0.643  18.802  0.00  0.00     0.000 A 
HETATM   16  C   UNK     0     -43.666  -1.847  18.290  0.00  0.00     0.001 A 
HETATM   17  C   UNK     0     -44.895  -1.880  17.629  0.00  0.00     0.014 A 
ENDBRANCH   5  12
BRANCH   6  18
HETATM   18  O   UNK     0     -50.007   0.945  18.915  0.00  0.00    -0.351 OA
HETATM   19  C   UNK     0     -49.719   2.340  18.988  0.00  0.00     0.210 C 
ENDBRANCH   6  18
BRANCH   8  20
HETATM   20  O   UNK     0     -51.104  -1.121  13.913  0.00  0.00    -0.360 OA
HETATM   21  H   UNK     0     -52.024  -1.426  13.892  0.00  0.00     0.217 HD
ENDBRANCH   8  20
BRANCH  10  22
HETATM   22  O   UNK     0     -52.567   1.042  17.872  0.00  0.00    -0.358 OA
HETATM   23  H   UNK     0     -53.182   0.343  18.154  0.00  0.00     0.217 HD
ENDBRANCH  10  22
TORSDOF 4
ENDMDL
MODEL 10
REMARK VINA RESULT:      -5.3     14.107     17.807
REMARK  4 active torsions:
REMARK  status: ('A' for Active; 'I' for Inactive)
REMARK    1  A    between atoms: O_2  and  C_9 
REMARK    2  A    between atoms: O_3  and  C_11 
REMARK    3  A    between atoms: O_4  and  C_14 
REMARK    4  A    between atoms: C_8  and  C_13 
ROOT
HETATM    1  O   UNK     0     -57.066  -0.148   6.200  0.00  0.00    -0.306 OA
HETATM    2  O   UNK     0     -58.466  -3.728   7.550  0.00  0.00    -0.287 OA
HETATM    3  C   UNK     0     -57.374  -1.692   8.049  0.00  0.00     0.084 A 
HETATM    4  C   UNK     0     -56.920  -0.485   7.522  0.00  0.00     0.129 A 
HETATM    5  C   UNK     0     -57.685  -1.054   5.353  0.00  0.00     0.090 A 
HETATM    6  C   UNK     0     -56.288   0.444   8.349  0.00  0.00     0.136 A 
HETATM    7  C   UNK     0     -58.040  -2.651   7.155  0.00  0.00     0.190 A 
HETATM    8  C   UNK     0     -57.200  -1.982   9.404  0.00  0.00     0.085 A 
HETATM    9  C   UNK     0     -58.170  -2.243   5.742  0.00  0.00     0.094 A 
HETATM   10  C   UNK     0     -56.110   0.159   9.704  0.00  0.00     0.104 A 
HETATM   11  C   UNK     0     -56.566  -1.051  10.230  0.00  0.00     0.077 A 
ENDROOT
BRANCH   5  12
HETATM   12  C   UNK     0     -57.795  -0.589   3.954  0.00  0.00    -0.002 A 
HETATM   13  C   UNK     0     -58.254  -1.456   2.960  0.00  0.00     0.014 A 
HETATM   14  C   UNK     0     -58.358  -1.018   1.641  0.00  0.00     0.001 A 
HETATM   15  C   UNK     0     -58.003   0.290   1.311  0.00  0.00     0.000 A 
HETATM   16  C   UNK     0     -57.544   1.159   2.300  0.00  0.00     0.001 A 
HETATM   17  C   UNK     0     -57.440   0.720   3.620  0.00  0.00     0.014 A 
ENDBRANCH   5  12
BRANCH   6  18
HETATM   18  O   UNK     0     -55.841   1.628   7.841  0.00  0.00    -0.351 OA
HETATM   19  C   UNK     0     -56.744   2.731   7.880  0.00  0.00     0.210 C 
ENDBRANCH   6  18
BRANCH   8  20
HETATM   20  O   UNK     0     -57.626  -3.146   9.967  0.00  0.00    -0.360 OA
HETATM   21  H   UNK     0     -57.245  -3.907   9.504  0.00  0.00     0.217 HD
ENDBRANCH   8  20
BRANCH  10  22
HETATM   22  O   UNK     0     -55.494   1.054  10.525  0.00  0.00    -0.358 OA
HETATM   23  H   UNK     0     -55.622   0.777  11.449  0.00  0.00     0.217 HD
ENDBRANCH  10  22
TORSDOF 4
ENDMDL
