MODEL 1
REMARK VINA RESULT:      -7.5      0.000      0.000
REMARK  10 active torsions:
REMARK  status: ('A' for Active; 'I' for Inactive)
REMARK    1  A    between atoms: O_2  and  C_15 
REMARK    2  A    between atoms: O_2  and  C_18 
REMARK    3  A    between atoms: O_3  and  C_12 
REMARK    4  A    between atoms: O_4  and  C_13 
REMARK    5  A    between atoms: O_5  and  C_14 
REMARK    6  A    between atoms: O_6  and  C_17 
REMARK    7  A    between atoms: O_9  and  C_19 
REMARK    8  A    between atoms: O_10  and  C_23 
REMARK    9  A    between atoms: C_16  and  C_17 
REMARK   10  A    between atoms: C_25  and  C_27 
ROOT
HETATM    1  O   UNK     0     -48.204  -1.704  14.862  0.00  0.00    -0.340 OA
HETATM    2  C   UNK     0     -50.428  -3.430  15.434  0.00  0.00     0.183 C 
HETATM    3  C   UNK     0     -49.096  -3.539  16.176  0.00  0.00     0.205 C 
HETATM    4  C   UNK     0     -50.610  -2.045  14.813  0.00  0.00     0.189 C 
HETATM    5  C   UNK     0     -47.939  -3.030  15.314  0.00  0.00     0.299 C 
HETATM    6  C   UNK     0     -49.363  -1.632  14.040  0.00  0.00     0.253 C 
ENDROOT
BRANCH   5   7
HETATM    7  O   UNK     0     -46.757  -3.041  16.112  0.00  0.00    -0.315 OA
BRANCH   7   8
HETATM    8  C   UNK     0     -46.667  -2.087  17.083  0.00  0.00     0.111 A 
HETATM    9  C   UNK     0     -45.467  -1.409  17.301  0.00  0.00     0.137 A 
HETATM   10  C   UNK     0     -45.391  -0.435  18.298  0.00  0.00     0.129 A 
HETATM   11  O   UNK     0     -44.186   0.197  18.465  0.00  0.00    -0.306 OA
HETATM   12  C   UNK     0     -46.513  -0.144  19.073  0.00  0.00     0.084 A 
HETATM   13  C   UNK     0     -44.083   1.174  19.444  0.00  0.00     0.090 A 
HETATM   14  C   UNK     0     -45.087   1.538  20.258  0.00  0.00     0.094 A 
HETATM   15  C   UNK     0     -46.404   0.885  20.119  0.00  0.00     0.190 A 
HETATM   16  O   UNK     0     -47.347   1.189  20.837  0.00  0.00    -0.287 OA
HETATM   17  C   UNK     0     -47.715  -0.821  18.858  0.00  0.00     0.085 A 
HETATM   18  C   UNK     0     -47.788  -1.794  17.861  0.00  0.00     0.077 A 
BRANCH   9  19
HETATM   19  O   UNK     0     -44.374  -1.699  16.537  0.00  0.00    -0.351 OA
HETATM   20  C   UNK     0     -44.353  -1.176  15.211  0.00  0.00     0.210 C 
ENDBRANCH   9  19
BRANCH  13  21
HETATM   21  C   UNK     0     -42.742   1.785  19.543  0.00  0.00    -0.002 A 
HETATM   22  C   UNK     0     -42.392   2.849  18.708  0.00  0.00     0.014 A 
HETATM   23  C   UNK     0     -41.126   3.427  18.802  0.00  0.00     0.001 A 
HETATM   24  C   UNK     0     -40.206   2.943  19.732  0.00  0.00     0.000 A 
HETATM   25  C   UNK     0     -40.551   1.881  20.568  0.00  0.00     0.001 A 
HETATM   26  C   UNK     0     -41.818   1.303  20.473  0.00  0.00     0.014 A 
ENDBRANCH  13  21
BRANCH  17  27
HETATM   27  O   UNK     0     -48.837  -0.574  19.590  0.00  0.00    -0.360 OA
HETATM   28  H   UNK     0     -49.327   0.174  19.218  0.00  0.00     0.217 HD
ENDBRANCH  17  27
ENDBRANCH   7   8
ENDBRANCH   5   7
BRANCH   6  29
HETATM   29  C   UNK     0     -49.424  -0.190  13.656  0.00  0.00     0.172 C 
HETATM   30  O   UNK     0     -50.416   0.520  13.750  0.00  0.00    -0.648 OA
BRANCH  29  31
HETATM   31  O   UNK     0     -48.228   0.232  13.181  0.00  0.00    -0.774 OA
HETATM   32  H   UNK     0     -47.550  -0.478  13.211  0.00  0.00     0.167 HD
ENDBRANCH  29  31
ENDBRANCH   6  29
BRANCH   3  33
HETATM   33  O   UNK     0     -48.844  -4.905  16.499  0.00  0.00    -0.388 OA
HETATM   34  H   UNK     0     -47.958  -5.129  16.167  0.00  0.00     0.210 HD
ENDBRANCH   3  33
BRANCH   4  35
HETATM   35  O   UNK     0     -51.716  -2.078  13.913  0.00  0.00    -0.390 OA
HETATM   36  H   UNK     0     -52.437  -1.554  14.301  0.00  0.00     0.210 HD
ENDBRANCH   4  35
BRANCH   2  37
HETATM   37  O   UNK     0     -51.502  -3.647  16.351  0.00  0.00    -0.390 OA
HETATM   38  H   UNK     0     -51.281  -3.190  17.180  0.00  0.00     0.210 HD
ENDBRANCH   2  37
TORSDOF 10
ENDMDL
MODEL 2
REMARK VINA RESULT:      -7.5      1.702      3.545
REMARK  10 active torsions:
REMARK  status: ('A' for Active; 'I' for Inactive)
REMARK    1  A    between atoms: O_2  and  C_15 
REMARK    2  A    between atoms: O_2  and  C_18 
REMARK    3  A    between atoms: O_3  and  C_12 
REMARK    4  A    between atoms: O_4  and  C_13 
REMARK    5  A    between atoms: O_5  and  C_14 
REMARK    6  A    between atoms: O_6  and  C_17 
REMARK    7  A    between atoms: O_9  and  C_19 
REMARK    8  A    between atoms: O_10  and  C_23 
REMARK    9  A    between atoms: C_16  and  C_17 
REMARK   10  A    between atoms: C_25  and  C_27 
ROOT
HETATM    1  O   UNK     0     -47.886  -4.812  17.450  0.00  0.00    -0.340 OA
HETATM    2  C   UNK     0     -50.435  -5.034  16.143  0.00  0.00     0.183 C 
HETATM    3  C   UNK     0     -49.442  -3.918  15.816  0.00  0.00     0.205 C 
HETATM    4  C   UNK     0     -49.734  -6.238  16.773  0.00  0.00     0.189 C 
HETATM    5  C   UNK     0     -48.533  -3.620  17.009  0.00  0.00     0.299 C 
HETATM    6  C   UNK     0     -48.810  -5.795  17.901  0.00  0.00     0.253 C 
ENDROOT
BRANCH   5   7
HETATM    7  O   UNK     0     -47.556  -2.668  16.591  0.00  0.00    -0.315 OA
BRANCH   7   8
HETATM    8  C   UNK     0     -47.337  -1.611  17.425  0.00  0.00     0.111 A 
HETATM    9  C   UNK     0     -46.041  -1.150  17.659  0.00  0.00     0.137 A 
HETATM   10  C   UNK     0     -45.834  -0.067  18.515  0.00  0.00     0.129 A 
HETATM   11  O   UNK     0     -44.539   0.341  18.707  0.00  0.00    -0.306 OA
HETATM   12  C   UNK     0     -46.920   0.550  19.132  0.00  0.00     0.084 A 
HETATM   13  C   UNK     0     -44.303   1.419  19.546  0.00  0.00     0.090 A 
HETATM   14  C   UNK     0     -45.262   2.091  20.202  0.00  0.00     0.094 A 
HETATM   15  C   UNK     0     -46.673   1.689  20.030  0.00  0.00     0.190 A 
HETATM   16  O   UNK     0     -47.579   2.276  20.606  0.00  0.00    -0.287 OA
HETATM   17  C   UNK     0     -48.219   0.092  18.900  0.00  0.00     0.085 A 
HETATM   18  C   UNK     0     -48.423  -0.991  18.045  0.00  0.00     0.077 A 
BRANCH   9  19
HETATM   19  O   UNK     0     -44.982  -1.759  17.052  0.00  0.00    -0.351 OA
HETATM   20  C   UNK     0     -44.605  -1.270  15.767  0.00  0.00     0.210 C 
ENDBRANCH   9  19
BRANCH  13  21
HETATM   21  C   UNK     0     -42.875   1.769  19.686  0.00  0.00    -0.002 A 
HETATM   22  C   UNK     0     -42.051   1.030  20.539  0.00  0.00     0.014 A 
HETATM   23  C   UNK     0     -40.703   1.360  20.671  0.00  0.00     0.001 A 
HETATM   24  C   UNK     0     -40.172   2.430  19.952  0.00  0.00     0.000 A 
HETATM   25  C   UNK     0     -40.992   3.171  19.099  0.00  0.00     0.001 A 
HETATM   26  C   UNK     0     -42.341   2.841  18.967  0.00  0.00     0.014 A 
ENDBRANCH  13  21
BRANCH  17  27
HETATM   27  O   UNK     0     -49.313   0.661  19.480  0.00  0.00    -0.360 OA
HETATM   28  H   UNK     0     -50.023   0.771  18.831  0.00  0.00     0.217 HD
ENDBRANCH  17  27
ENDBRANCH   7   8
ENDBRANCH   5   7
BRANCH   6  29
HETATM   29  C   UNK     0     -47.930  -6.918  18.344  0.00  0.00     0.172 C 
HETATM   30  O   UNK     0     -47.363  -6.980  19.425  0.00  0.00    -0.648 OA
BRANCH  29  31
HETATM   31  O   UNK     0     -47.837  -7.865  17.379  0.00  0.00    -0.774 OA
HETATM   32  H   UNK     0     -47.059  -7.723  16.798  0.00  0.00     0.167 HD
ENDBRANCH  29  31
ENDBRANCH   6  29
BRANCH   3  33
HETATM   33  O   UNK     0     -50.158  -2.727  15.492  0.00  0.00    -0.388 OA
HETATM   34  H   UNK     0     -50.453  -2.803  14.568  0.00  0.00     0.210 HD
ENDBRANCH   3  33
BRANCH   4  35
HETATM   35  O   UNK     0     -50.717  -7.123  17.308  0.00  0.00    -0.390 OA
HETATM   36  H   UNK     0     -50.277  -7.714  17.942  0.00  0.00     0.210 HD
ENDBRANCH   4  35
BRANCH   2  37
HETATM   37  O   UNK     0     -51.071  -5.472  14.941  0.00  0.00    -0.390 OA
HETATM   38  H   UNK     0     -50.646  -6.303  14.667  0.00  0.00     0.210 HD
ENDBRANCH   2  37
TORSDOF 10
ENDMDL
MODEL 3
REMARK VINA RESULT:      -7.4      2.552      4.344
REMARK  10 active torsions:
REMARK  status: ('A' for Active; 'I' for Inactive)
REMARK    1  A    between atoms: O_2  and  C_15 
REMARK    2  A    between atoms: O_2  and  C_18 
REMARK    3  A    between atoms: O_3  and  C_12 
REMARK    4  A    between atoms: O_4  and  C_13 
REMARK    5  A    between atoms: O_5  and  C_14 
REMARK    6  A    between atoms: O_6  and  C_17 
REMARK    7  A    between atoms: O_9  and  C_19 
REMARK    8  A    between atoms: O_10  and  C_23 
REMARK    9  A    between atoms: C_16  and  C_17 
REMARK   10  A    between atoms: C_25  and  C_27 
ROOT
HETATM    1  O   UNK     0     -51.486   1.433  15.279  0.00  0.00    -0.340 OA
HETATM    2  C   UNK     0     -53.916  -0.034  14.830  0.00  0.00     0.183 C 
HETATM    3  C   UNK     0     -52.932  -0.401  15.940  0.00  0.00     0.205 C 
HETATM    4  C   UNK     0     -53.751   1.424  14.398  0.00  0.00     0.189 C 
HETATM    5  C   UNK     0     -51.510   0.041  15.589  0.00  0.00     0.299 C 
HETATM    6  C   UNK     0     -52.285   1.749  14.145  0.00  0.00     0.253 C 
ENDROOT
BRANCH   5   7
HETATM    7  O   UNK     0     -50.677  -0.216  16.717  0.00  0.00    -0.315 OA
BRANCH   7   8
HETATM    8  C   UNK     0     -49.375  -0.531  16.457  0.00  0.00     0.111 A 
HETATM    9  C   UNK     0     -48.353  -0.049  17.275  0.00  0.00     0.137 A 
HETATM   10  C   UNK     0     -47.026  -0.381  16.995  0.00  0.00     0.129 A 
HETATM   11  O   UNK     0     -46.065   0.122  17.833  0.00  0.00    -0.306 OA
HETATM   12  C   UNK     0     -46.727  -1.192  15.902  0.00  0.00     0.084 A 
HETATM   13  C   UNK     0     -44.739  -0.196  17.585  0.00  0.00     0.090 A 
HETATM   14  C   UNK     0     -44.323  -0.960  16.561  0.00  0.00     0.094 A 
HETATM   15  C   UNK     0     -45.320  -1.525  15.629  0.00  0.00     0.190 A 
HETATM   16  O   UNK     0     -44.986  -2.229  14.686  0.00  0.00    -0.287 OA
HETATM   17  C   UNK     0     -47.748  -1.676  15.081  0.00  0.00     0.085 A 
HETATM   18  C   UNK     0     -49.073  -1.343  15.363  0.00  0.00     0.077 A 
BRANCH   9  19
HETATM   19  O   UNK     0     -48.653   0.744  18.344  0.00  0.00    -0.351 OA
HETATM   20  C   UNK     0     -48.960   0.086  19.571  0.00  0.00     0.210 C 
ENDBRANCH   9  19
BRANCH  13  21
HETATM   21  C   UNK     0     -43.787   0.403  18.542  0.00  0.00    -0.002 A 
HETATM   22  C   UNK     0     -43.151  -0.399  19.494  0.00  0.00     0.014 A 
HETATM   23  C   UNK     0     -42.252   0.167  20.398  0.00  0.00     0.001 A 
HETATM   24  C   UNK     0     -41.985   1.535  20.354  0.00  0.00     0.000 A 
HETATM   25  C   UNK     0     -42.619   2.339  19.405  0.00  0.00     0.001 A 
HETATM   26  C   UNK     0     -43.518   1.773  18.501  0.00  0.00     0.014 A 
ENDBRANCH  13  21
BRANCH  17  27
HETATM   27  O   UNK     0     -47.507  -2.471  14.001  0.00  0.00    -0.360 OA
HETATM   28  H   UNK     0     -46.571  -2.432  13.753  0.00  0.00     0.217 HD
ENDBRANCH  17  27
ENDBRANCH   7   8
ENDBRANCH   5   7
BRANCH   6  29
HETATM   29  C   UNK     0     -52.083   3.221  13.982  0.00  0.00     0.172 C 
HETATM   30  O   UNK     0     -51.998   3.803  12.910  0.00  0.00    -0.648 OA
BRANCH  29  31
HETATM   31  O   UNK     0     -52.002   3.831  15.189  0.00  0.00    -0.774 OA
HETATM   32  H   UNK     0     -52.823   4.318  15.411  0.00  0.00     0.167 HD
ENDBRANCH  29  31
ENDBRANCH   6  29
BRANCH   3  33
HETATM   33  O   UNK     0     -52.927  -1.817  16.120  0.00  0.00    -0.388 OA
HETATM   34  H   UNK     0     -52.266  -2.026  16.801  0.00  0.00     0.210 HD
ENDBRANCH   3  33
BRANCH   4  35
HETATM   35  O   UNK     0     -54.483   1.639  13.192  0.00  0.00    -0.390 OA
HETATM   36  H   UNK     0     -54.100   1.071  12.502  0.00  0.00     0.210 HD
ENDBRANCH   4  35
BRANCH   2  37
HETATM   37  O   UNK     0     -55.253  -0.206  15.303  0.00  0.00    -0.390 OA
HETATM   38  H   UNK     0     -55.797  -0.497  14.553  0.00  0.00     0.210 HD
ENDBRANCH   2  37
TORSDOF 10
ENDMDL
MODEL 4
REMARK VINA RESULT:      -7.4      1.699      2.348
REMARK  10 active torsions:
REMARK  status: ('A' for Active; 'I' for Inactive)
REMARK    1  A    between atoms: O_2  and  C_15 
REMARK    2  A    between atoms: O_2  and  C_18 
REMARK    3  A    between atoms: O_3  and  C_12 
REMARK    4  A    between atoms: O_4  and  C_13 
REMARK    5  A    between atoms: O_5  and  C_14 
REMARK    6  A    between atoms: O_6  and  C_17 
REMARK    7  A    between atoms: O_9  and  C_19 
REMARK    8  A    between atoms: O_10  and  C_23 
REMARK    9  A    between atoms: C_16  and  C_17 
REMARK   10  A    between atoms: C_25  and  C_27 
ROOT
HETATM    1  O   UNK     0     -49.046  -0.996  16.616  0.00  0.00    -0.340 OA
HETATM    2  C   UNK     0     -48.404  -1.865  13.953  0.00  0.00     0.183 C 
HETATM    3  C   UNK     0     -47.641  -2.360  15.183  0.00  0.00     0.205 C 
HETATM    4  C   UNK     0     -49.792  -1.346  14.329  0.00  0.00     0.189 C 
HETATM    5  C   UNK     0     -47.694  -1.335  16.317  0.00  0.00     0.299 C 
HETATM    6  C   UNK     0     -49.710  -0.390  15.512  0.00  0.00     0.253 C 
ENDROOT
BRANCH   5   7
HETATM    7  O   UNK     0     -47.078  -1.916  17.464  0.00  0.00    -0.315 OA
BRANCH   7   8
HETATM    8  C   UNK     0     -46.796  -1.073  18.499  0.00  0.00     0.111 A 
HETATM    9  C   UNK     0     -45.603  -0.348  18.518  0.00  0.00     0.137 A 
HETATM   10  C   UNK     0     -45.330   0.510  19.584  0.00  0.00     0.129 A 
HETATM   11  O   UNK     0     -44.143   1.195  19.547  0.00  0.00    -0.306 OA
HETATM   12  C   UNK     0     -46.247   0.641  20.625  0.00  0.00     0.084 A 
HETATM   13  C   UNK     0     -43.847   2.061  20.589  0.00  0.00     0.090 A 
HETATM   14  C   UNK     0     -44.644   2.267  21.650  0.00  0.00     0.094 A 
HETATM   15  C   UNK     0     -45.932   1.551  21.737  0.00  0.00     0.190 A 
HETATM   16  O   UNK     0     -46.690   1.713  22.684  0.00  0.00    -0.287 OA
HETATM   17  C   UNK     0     -47.441  -0.083  20.610  0.00  0.00     0.085 A 
HETATM   18  C   UNK     0     -47.712  -0.941  19.544  0.00  0.00     0.077 A 
BRANCH   9  19
HETATM   19  O   UNK     0     -44.711  -0.481  17.495  0.00  0.00    -0.351 OA
HETATM   20  C   UNK     0     -43.819  -1.591  17.555  0.00  0.00     0.210 C 
ENDBRANCH   9  19
BRANCH  13  21
HETATM   21  C   UNK     0     -42.543   2.741  20.453  0.00  0.00    -0.002 A 
HETATM   22  C   UNK     0     -41.917   3.290  21.575  0.00  0.00     0.014 A 
HETATM   23  C   UNK     0     -40.685   3.931  21.447  0.00  0.00     0.001 A 
HETATM   24  C   UNK     0     -40.075   4.027  20.196  0.00  0.00     0.000 A 
HETATM   25  C   UNK     0     -40.697   3.480  19.073  0.00  0.00     0.001 A 
HETATM   26  C   UNK     0     -41.930   2.838  19.201  0.00  0.00     0.014 A 
ENDBRANCH  13  21
BRANCH  17  27
HETATM   27  O   UNK     0     -48.368   0.009  21.605  0.00  0.00    -0.360 OA
HETATM   28  H   UNK     0     -47.948  -0.095  22.471  0.00  0.00     0.217 HD
ENDBRANCH  17  27
ENDBRANCH   7   8
ENDBRANCH   5   7
BRANCH   6  29
HETATM   29  C   UNK     0     -51.070  -0.087  16.052  0.00  0.00     0.172 C 
HETATM   30  O   UNK     0     -51.629  -0.717  16.938  0.00  0.00    -0.648 OA
BRANCH  29  31
HETATM   31  O   UNK     0     -51.608   0.984  15.421  0.00  0.00    -0.774 OA
HETATM   32  H   UNK     0     -51.244   1.830  15.759  0.00  0.00     0.167 HD
ENDBRANCH  29  31
ENDBRANCH   6  29
BRANCH   3  33
HETATM   33  O   UNK     0     -46.274  -2.573  14.837  0.00  0.00    -0.388 OA
HETATM   34  H   UNK     0     -45.832  -1.707  14.830  0.00  0.00     0.210 HD
ENDBRANCH   3  33
BRANCH   4  35
HETATM   35  O   UNK     0     -50.348  -0.650  13.215  0.00  0.00    -0.390 OA
HETATM   36  H   UNK     0     -51.311  -0.784  13.225  0.00  0.00     0.210 HD
ENDBRANCH   4  35
BRANCH   2  37
HETATM   37  O   UNK     0     -48.569  -2.942  13.030  0.00  0.00    -0.390 OA
HETATM   38  H   UNK     0     -47.708  -3.382  12.932  0.00  0.00     0.210 HD
ENDBRANCH   2  37
TORSDOF 10
ENDMDL
MODEL 5
REMARK VINA RESULT:      -7.4      1.634      3.060
REMARK  10 active torsions:
REMARK  status: ('A' for Active; 'I' for Inactive)
REMARK    1  A    between atoms: O_2  and  C_15 
REMARK    2  A    between atoms: O_2  and  C_18 
REMARK    3  A    between atoms: O_3  and  C_12 
REMARK    4  A    between atoms: O_4  and  C_13 
REMARK    5  A    between atoms: O_5  and  C_14 
REMARK    6  A    between atoms: O_6  and  C_17 
REMARK    7  A    between atoms: O_9  and  C_19 
REMARK    8  A    between atoms: O_10  and  C_23 
REMARK    9  A    between atoms: C_16  and  C_17 
REMARK   10  A    between atoms: C_25  and  C_27 
ROOT
HETATM    1  O   UNK     0     -47.943  -2.305  16.706  0.00  0.00    -0.340 OA
HETATM    2  C   UNK     0     -49.339  -2.283  14.195  0.00  0.00     0.183 C 
HETATM    3  C   UNK     0     -48.109  -1.413  14.455  0.00  0.00     0.205 C 
HETATM    4  C   UNK     0     -49.386  -3.481  15.143  0.00  0.00     0.189 C 
HETATM    5  C   UNK     0     -47.958  -1.099  15.944  0.00  0.00     0.299 C 
HETATM    6  C   UNK     0     -49.155  -3.039  16.583  0.00  0.00     0.253 C 
ENDROOT
BRANCH   5   7
HETATM    7  O   UNK     0     -46.729  -0.399  16.125  0.00  0.00    -0.315 OA
BRANCH   7   8
HETATM    8  C   UNK     0     -46.530   0.184  17.342  0.00  0.00     0.111 A 
HETATM    9  C   UNK     0     -45.255   0.229  17.906  0.00  0.00     0.137 A 
HETATM   10  C   UNK     0     -45.069   0.831  19.152  0.00  0.00     0.129 A 
HETATM   11  O   UNK     0     -43.794   0.844  19.656  0.00  0.00    -0.306 OA
HETATM   12  C   UNK     0     -46.156   1.384  19.827  0.00  0.00     0.084 A 
HETATM   13  C   UNK     0     -43.577   1.441  20.889  0.00  0.00     0.090 A 
HETATM   14  C   UNK     0     -44.541   2.001  21.638  0.00  0.00     0.094 A 
HETATM   15  C   UNK     0     -45.931   2.010  21.139  0.00  0.00     0.190 A 
HETATM   16  O   UNK     0     -46.839   2.513  21.788  0.00  0.00    -0.287 OA
HETATM   17  C   UNK     0     -47.433   1.341  19.265  0.00  0.00     0.085 A 
HETATM   18  C   UNK     0     -47.616   0.739  18.020  0.00  0.00     0.077 A 
BRANCH   9  19
HETATM   19  O   UNK     0     -44.196  -0.314  17.239  0.00  0.00    -0.351 OA
HETATM   20  C   UNK     0     -43.945  -1.702  17.445  0.00  0.00     0.210 C 
ENDBRANCH   9  19
BRANCH  13  21
HETATM   21  C   UNK     0     -42.172   1.394  21.340  0.00  0.00    -0.002 A 
HETATM   22  C   UNK     0     -41.139   1.717  20.456  0.00  0.00     0.014 A 
HETATM   23  C   UNK     0     -39.812   1.674  20.882  0.00  0.00     0.001 A 
HETATM   24  C   UNK     0     -39.512   1.307  22.194  0.00  0.00     0.000 A 
HETATM   25  C   UNK     0     -40.540   0.983  23.080  0.00  0.00     0.001 A 
HETATM   26  C   UNK     0     -41.868   1.027  22.653  0.00  0.00     0.014 A 
ENDBRANCH  13  21
BRANCH  17  27
HETATM   27  O   UNK     0     -48.526   1.866  19.886  0.00  0.00    -0.360 OA
HETATM   28  H   UNK     0     -49.338   1.586  19.439  0.00  0.00     0.217 HD
ENDBRANCH  17  27
ENDBRANCH   7   8
ENDBRANCH   5   7
BRANCH   6  29
HETATM   29  C   UNK     0     -48.936  -4.217  17.476  0.00  0.00     0.172 C 
HETATM   30  O   UNK     0     -49.021  -4.197  18.696  0.00  0.00    -0.648 OA
BRANCH  29  31
HETATM   31  O   UNK     0     -48.625  -5.318  16.751  0.00  0.00    -0.774 OA
HETATM   32  H   UNK     0     -48.663  -6.136  17.291  0.00  0.00     0.167 HD
ENDBRANCH  29  31
ENDBRANCH   6  29
BRANCH   3  33
HETATM   33  O   UNK     0     -48.244  -0.179  13.751  0.00  0.00    -0.388 OA
HETATM   34  H   UNK     0     -48.342  -0.388  12.806  0.00  0.00     0.210 HD
ENDBRANCH   3  33
BRANCH   4  35
HETATM   35  O   UNK     0     -50.669  -4.098  15.054  0.00  0.00    -0.390 OA
HETATM   36  H   UNK     0     -51.310  -3.421  14.778  0.00  0.00     0.210 HD
ENDBRANCH   4  35
BRANCH   2  37
HETATM   37  O   UNK     0     -49.295  -2.781  12.856  0.00  0.00    -0.390 OA
HETATM   38  H   UNK     0     -49.286  -3.751  12.902  0.00  0.00     0.210 HD
ENDBRANCH   2  37
TORSDOF 10
ENDMDL
MODEL 6
REMARK VINA RESULT:      -7.1      1.777      3.428
REMARK  10 active torsions:
REMARK  status: ('A' for Active; 'I' for Inactive)
REMARK    1  A    between atoms: O_2  and  C_15 
REMARK    2  A    between atoms: O_2  and  C_18 
REMARK    3  A    between atoms: O_3  and  C_12 
REMARK    4  A    between atoms: O_4  and  C_13 
REMARK    5  A    between atoms: O_5  and  C_14 
REMARK    6  A    between atoms: O_6  and  C_17 
REMARK    7  A    between atoms: O_9  and  C_19 
REMARK    8  A    between atoms: O_10  and  C_23 
REMARK    9  A    between atoms: C_16  and  C_17 
REMARK   10  A    between atoms: C_25  and  C_27 
ROOT
HETATM    1  O   UNK     0     -50.326  -1.345  15.670  0.00  0.00    -0.340 OA
HETATM    2  C   UNK     0     -53.106  -1.292  16.395  0.00  0.00     0.183 C 
HETATM    3  C   UNK     0     -52.027  -1.840  17.329  0.00  0.00     0.205 C 
HETATM    4  C   UNK     0     -52.514  -0.335  15.360  0.00  0.00     0.189 C 
HETATM    5  C   UNK     0     -50.824  -2.359  16.541  0.00  0.00     0.299 C 
HETATM    6  C   UNK     0     -51.286  -0.946  14.699  0.00  0.00     0.253 C 
ENDROOT
BRANCH   5   7
HETATM    7  O   UNK     0     -49.812  -2.731  17.475  0.00  0.00    -0.315 OA
BRANCH   7   8
HETATM    8  C   UNK     0     -48.526  -2.426  17.138  0.00  0.00     0.111 A 
HETATM    9  C   UNK     0     -47.711  -1.717  18.021  0.00  0.00     0.137 A 
HETATM   10  C   UNK     0     -46.397  -1.412  17.661  0.00  0.00     0.129 A 
HETATM   11  O   UNK     0     -45.645  -0.713  18.570  0.00  0.00    -0.306 OA
HETATM   12  C   UNK     0     -45.904  -1.817  16.422  0.00  0.00     0.084 A 
HETATM   13  C   UNK     0     -44.335  -0.403  18.243  0.00  0.00     0.090 A 
HETATM   14  C   UNK     0     -43.747  -0.729  17.080  0.00  0.00     0.094 A 
HETATM   15  C   UNK     0     -44.516  -1.481  16.067  0.00  0.00     0.190 A 
HETATM   16  O   UNK     0     -44.019  -1.802  14.997  0.00  0.00    -0.287 OA
HETATM   17  C   UNK     0     -46.717  -2.526  15.535  0.00  0.00     0.085 A 
HETATM   18  C   UNK     0     -48.029  -2.829  15.897  0.00  0.00     0.077 A 
BRANCH   9  19
HETATM   19  O   UNK     0     -48.201  -1.324  19.233  0.00  0.00    -0.351 OA
HETATM   20  C   UNK     0     -48.916  -0.092  19.273  0.00  0.00     0.210 C 
ENDBRANCH   9  19
BRANCH  13  21
HETATM   21  C   UNK     0     -43.618   0.356  19.288  0.00  0.00    -0.002 A 
HETATM   22  C   UNK     0     -43.125   1.635  19.014  0.00  0.00     0.014 A 
HETATM   23  C   UNK     0     -42.450   2.352  20.002  0.00  0.00     0.001 A 
HETATM   24  C   UNK     0     -42.265   1.793  21.266  0.00  0.00     0.000 A 
HETATM   25  C   UNK     0     -42.755   0.516  21.543  0.00  0.00     0.001 A 
HETATM   26  C   UNK     0     -43.431  -0.201  20.556  0.00  0.00     0.014 A 
ENDBRANCH  13  21
BRANCH  17  27
HETATM   27  O   UNK     0     -46.281  -2.942  14.313  0.00  0.00    -0.360 OA
HETATM   28  H   UNK     0     -45.576  -2.362  13.988  0.00  0.00     0.217 HD
ENDBRANCH  17  27
ENDBRANCH   7   8
ENDBRANCH   5   7
BRANCH   6  29
HETATM   29  C   UNK     0     -50.552   0.071  13.887  0.00  0.00     0.172 C 
HETATM   30  O   UNK     0     -50.967   1.190  13.622  0.00  0.00    -0.648 OA
BRANCH  29  31
HETATM   31  O   UNK     0     -49.356  -0.415  13.475  0.00  0.00    -0.774 OA
HETATM   32  H   UNK     0     -48.717  -0.493  14.215  0.00  0.00     0.167 HD
ENDBRANCH  29  31
ENDBRANCH   6  29
BRANCH   3  33
HETATM   33  O   UNK     0     -52.563  -2.921  18.090  0.00  0.00    -0.388 OA
HETATM   34  H   UNK     0     -52.707  -3.666  17.482  0.00  0.00     0.210 HD
ENDBRANCH   3  33
BRANCH   4  35
HETATM   35  O   UNK     0     -53.492  -0.072  14.355  0.00  0.00    -0.390 OA
HETATM   36  H   UNK     0     -54.367  -0.068  14.779  0.00  0.00     0.210 HD
ENDBRANCH   4  35
BRANCH   2  37
HETATM   37  O   UNK     0     -54.076  -0.573  17.159  0.00  0.00    -0.390 OA
HETATM   38  H   UNK     0     -54.135   0.325  16.791  0.00  0.00     0.210 HD
ENDBRANCH   2  37
TORSDOF 10
ENDMDL
MODEL 7
REMARK VINA RESULT:      -7.1      2.254      3.560
REMARK  10 active torsions:
REMARK  status: ('A' for Active; 'I' for Inactive)
REMARK    1  A    between atoms: O_2  and  C_15 
REMARK    2  A    between atoms: O_2  and  C_18 
REMARK    3  A    between atoms: O_3  and  C_12 
REMARK    4  A    between atoms: O_4  and  C_13 
REMARK    5  A    between atoms: O_5  and  C_14 
REMARK    6  A    between atoms: O_6  and  C_17 
REMARK    7  A    between atoms: O_9  and  C_19 
REMARK    8  A    between atoms: O_10  and  C_23 
REMARK    9  A    between atoms: C_16  and  C_17 
REMARK   10  A    between atoms: C_25  and  C_27 
ROOT
HETATM    1  O   UNK     0     -48.393  -0.818  15.731  0.00  0.00    -0.340 OA
HETATM    2  C   UNK     0     -48.835  -3.634  15.376  0.00  0.00     0.183 C 
HETATM    3  C   UNK     0     -48.681  -2.998  16.757  0.00  0.00     0.205 C 
HETATM    4  C   UNK     0     -49.263  -2.604  14.331  0.00  0.00     0.189 C 
HETATM    5  C   UNK     0     -47.842  -1.720  16.687  0.00  0.00     0.299 C 
HETATM    6  C   UNK     0     -48.392  -1.357  14.414  0.00  0.00     0.253 C 
ENDROOT
BRANCH   5   7
HETATM    7  O   UNK     0     -47.850  -1.117  17.980  0.00  0.00    -0.315 OA
BRANCH   7   8
HETATM    8  C   UNK     0     -46.646  -0.704  18.469  0.00  0.00     0.111 A 
HETATM    9  C   UNK     0     -46.578   0.322  19.412  0.00  0.00     0.137 A 
HETATM   10  C   UNK     0     -45.337   0.732  19.904  0.00  0.00     0.129 A 
HETATM   11  O   UNK     0     -45.334   1.745  20.827  0.00  0.00    -0.306 OA
HETATM   12  C   UNK     0     -44.172   0.116  19.452  0.00  0.00     0.084 A 
HETATM   13  C   UNK     0     -44.117   2.169  21.339  0.00  0.00     0.090 A 
HETATM   14  C   UNK     0     -42.927   1.661  20.979  0.00  0.00     0.094 A 
HETATM   15  C   UNK     0     -42.878   0.569  19.985  0.00  0.00     0.190 A 
HETATM   16  O   UNK     0     -41.816   0.075  19.633  0.00  0.00    -0.287 OA
HETATM   17  C   UNK     0     -44.236  -0.912  18.509  0.00  0.00     0.085 A 
HETATM   18  C   UNK     0     -45.477  -1.319  18.019  0.00  0.00     0.077 A 
BRANCH   9  19
HETATM   19  O   UNK     0     -47.724   0.920  19.850  0.00  0.00    -0.351 OA
HETATM   20  C   UNK     0     -48.206   2.027  19.091  0.00  0.00     0.210 C 
ENDBRANCH   9  19
BRANCH  13  21
HETATM   21  C   UNK     0     -44.228   3.267  22.319  0.00  0.00    -0.002 A 
HETATM   22  C   UNK     0     -45.433   3.492  22.990  0.00  0.00     0.014 A 
HETATM   23  C   UNK     0     -45.537   4.528  23.917  0.00  0.00     0.001 A 
HETATM   24  C   UNK     0     -44.437   5.345  24.177  0.00  0.00     0.000 A 
HETATM   25  C   UNK     0     -43.232   5.125  23.509  0.00  0.00     0.001 A 
HETATM   26  C   UNK     0     -43.127   4.088  22.582  0.00  0.00     0.014 A 
ENDBRANCH  13  21
BRANCH  17  27
HETATM   27  O   UNK     0     -43.125  -1.544  18.036  0.00  0.00    -0.360 OA
HETATM   28  H   UNK     0     -42.338  -0.998  18.176  0.00  0.00     0.217 HD
ENDBRANCH  17  27
ENDBRANCH   7   8
ENDBRANCH   5   7
BRANCH   6  29
HETATM   29  C   UNK     0     -48.961  -0.249  13.588  0.00  0.00     0.172 C 
HETATM   30  O   UNK     0     -50.140   0.077  13.569  0.00  0.00    -0.648 OA
BRANCH  29  31
HETATM   31  O   UNK     0     -47.993   0.348  12.854  0.00  0.00    -0.774 OA
HETATM   32  H   UNK     0     -47.526  -0.290  12.273  0.00  0.00     0.167 HD
ENDBRANCH  29  31
ENDBRANCH   6  29
BRANCH   3  33
HETATM   33  O   UNK     0     -48.025  -3.915  17.631  0.00  0.00    -0.388 OA
HETATM   34  H   UNK     0     -47.581  -3.397  18.324  0.00  0.00     0.210 HD
ENDBRANCH   3  33
BRANCH   4  35
HETATM   35  O   UNK     0     -49.125  -3.173  13.030  0.00  0.00    -0.390 OA
HETATM   36  H   UNK     0     -48.667  -2.527  12.466  0.00  0.00     0.210 HD
ENDBRANCH   4  35
BRANCH   2  37
HETATM   37  O   UNK     0     -49.837  -4.651  15.430  0.00  0.00    -0.390 OA
HETATM   38  H   UNK     0     -50.695  -4.214  15.561  0.00  0.00     0.210 HD
ENDBRANCH   2  37
TORSDOF 10
ENDMDL
MODEL 8
REMARK VINA RESULT:      -7.0      9.015     15.220
REMARK  10 active torsions:
REMARK  status: ('A' for Active; 'I' for Inactive)
REMARK    1  A    between atoms: O_2  and  C_15 
REMARK    2  A    between atoms: O_2  and  C_18 
REMARK    3  A    between atoms: O_3  and  C_12 
REMARK    4  A    between atoms: O_4  and  C_13 
REMARK    5  A    between atoms: O_5  and  C_14 
REMARK    6  A    between atoms: O_6  and  C_17 
REMARK    7  A    between atoms: O_9  and  C_19 
REMARK    8  A    between atoms: O_10  and  C_23 
REMARK    9  A    between atoms: C_16  and  C_17 
REMARK   10  A    between atoms: C_25  and  C_27 
ROOT
HETATM    1  O   UNK     0     -53.761   3.719  11.834  0.00  0.00    -0.340 OA
HETATM    2  C   UNK     0     -52.273   5.603  10.255  0.00  0.00     0.183 C 
HETATM    3  C   UNK     0     -53.748   5.299   9.992  0.00  0.00     0.205 C 
HETATM    4  C   UNK     0     -51.877   5.247  11.688  0.00  0.00     0.189 C 
HETATM    5  C   UNK     0     -54.116   3.891  10.464  0.00  0.00     0.299 C 
HETATM    6  C   UNK     0     -52.361   3.849  12.052  0.00  0.00     0.253 C 
ENDROOT
BRANCH   5   7
HETATM    7  O   UNK     0     -55.524   3.728  10.307  0.00  0.00    -0.315 OA
BRANCH   7   8
HETATM    8  C   UNK     0     -55.952   2.517   9.847  0.00  0.00     0.111 A 
HETATM    9  C   UNK     0     -56.223   2.330   8.490  0.00  0.00     0.137 A 
HETATM   10  C   UNK     0     -56.659   1.085   8.036  0.00  0.00     0.129 A 
HETATM   11  O   UNK     0     -56.910   0.962   6.693  0.00  0.00    -0.306 OA
HETATM   12  C   UNK     0     -56.823   0.034   8.936  0.00  0.00     0.084 A 
HETATM   13  C   UNK     0     -57.338  -0.266   6.211  0.00  0.00     0.090 A 
HETATM   14  C   UNK     0     -57.540  -1.350   6.977  0.00  0.00     0.094 A 
HETATM   15  C   UNK     0     -57.286  -1.268   8.429  0.00  0.00     0.190 A 
HETATM   16  O   UNK     0     -57.453  -2.233   9.163  0.00  0.00    -0.287 OA
HETATM   17  C   UNK     0     -56.553   0.217  10.293  0.00  0.00     0.085 A 
HETATM   18  C   UNK     0     -56.118   1.463  10.745  0.00  0.00     0.077 A 
BRANCH   9  19
HETATM   19  O   UNK     0     -56.060   3.364   7.615  0.00  0.00    -0.351 OA
HETATM   20  C   UNK     0     -57.177   4.227   7.418  0.00  0.00     0.210 C 
ENDBRANCH   9  19
BRANCH  13  21
HETATM   21  C   UNK     0     -57.584  -0.286   4.755  0.00  0.00    -0.002 A 
HETATM   22  C   UNK     0     -57.205   0.801   3.963  0.00  0.00     0.014 A 
HETATM   23  C   UNK     0     -57.437   0.781   2.588  0.00  0.00     0.001 A 
HETATM   24  C   UNK     0     -58.048  -0.325   1.999  0.00  0.00     0.000 A 
HETATM   25  C   UNK     0     -58.428  -1.413   2.787  0.00  0.00     0.001 A 
HETATM   26  C   UNK     0     -58.197  -1.393   4.162  0.00  0.00     0.014 A 
ENDBRANCH  13  21
BRANCH  17  27
HETATM   27  O   UNK     0     -56.699  -0.779  11.212  0.00  0.00    -0.360 OA
HETATM   28  H   UNK     0     -55.840  -1.026  11.584  0.00  0.00     0.217 HD
ENDBRANCH  17  27
ENDBRANCH   7   8
ENDBRANCH   5   7
BRANCH   6  29
HETATM   29  C   UNK     0     -52.215   3.596  13.517  0.00  0.00     0.172 C 
HETATM   30  O   UNK     0     -52.250   2.493  14.045  0.00  0.00    -0.648 OA
BRANCH  29  31
HETATM   31  O   UNK     0     -52.043   4.758  14.190  0.00  0.00    -0.774 OA
HETATM   32  H   UNK     0     -52.238   4.661  15.147  0.00  0.00     0.167 HD
ENDBRANCH  29  31
ENDBRANCH   6  29
BRANCH   3  33
HETATM   33  O   UNK     0     -54.006   5.382   8.591  0.00  0.00    -0.388 OA
HETATM   34  H   UNK     0     -54.947   5.599   8.477  0.00  0.00     0.210 HD
ENDBRANCH   3  33
BRANCH   4  35
HETATM   35  O   UNK     0     -50.455   5.283  11.802  0.00  0.00    -0.390 OA
HETATM   36  H   UNK     0     -50.167   6.206  11.697  0.00  0.00     0.210 HD
ENDBRANCH   4  35
BRANCH   2  37
HETATM   37  O   UNK     0     -52.033   6.998  10.063  0.00  0.00    -0.390 OA
HETATM   38  H   UNK     0     -51.202   7.219  10.515  0.00  0.00     0.210 HD
ENDBRANCH   2  37
TORSDOF 10
ENDMDL
MODEL 9
REMARK VINA RESULT:      -6.9      1.952      4.472
REMARK  10 active torsions:
REMARK  status: ('A' for Active; 'I' for Inactive)
REMARK    1  A    between atoms: O_2  and  C_15 
REMARK    2  A    between atoms: O_2  and  C_18 
REMARK    3  A    between atoms: O_3  and  C_12 
REMARK    4  A    between atoms: O_4  and  C_13 
REMARK    5  A    between atoms: O_5  and  C_14 
REMARK    6  A    between atoms: O_6  and  C_17 
REMARK    7  A    between atoms: O_9  and  C_19 
REMARK    8  A    between atoms: O_10  and  C_23 
REMARK    9  A    between atoms: C_16  and  C_17 
REMARK   10  A    between atoms: C_25  and  C_27 
ROOT
HETATM    1  O   UNK     0     -49.499  -4.283  17.355  0.00  0.00    -0.340 OA
HETATM    2  C   UNK     0     -52.068  -5.400  16.715  0.00  0.00     0.183 C 
HETATM    3  C   UNK     0     -51.706  -3.949  16.401  0.00  0.00     0.205 C 
HETATM    4  C   UNK     0     -50.818  -6.266  16.871  0.00  0.00     0.189 C 
HETATM    5  C   UNK     0     -50.638  -3.424  17.362  0.00  0.00     0.299 C 
HETATM    6  C   UNK     0     -49.810  -5.598  17.798  0.00  0.00     0.253 C 
ENDROOT
BRANCH   5   7
HETATM    7  O   UNK     0     -50.259  -2.119  16.929  0.00  0.00    -0.315 OA
BRANCH   7   8
HETATM    8  C   UNK     0     -48.926  -1.902  16.735  0.00  0.00     0.111 A 
HETATM    9  C   UNK     0     -48.198  -1.117  17.630  0.00  0.00     0.137 A 
HETATM   10  C   UNK     0     -46.835  -0.905  17.417  0.00  0.00     0.129 A 
HETATM   11  O   UNK     0     -46.172  -0.126  18.330  0.00  0.00    -0.306 OA
HETATM   12  C   UNK     0     -46.206  -1.477  16.312  0.00  0.00     0.084 A 
HETATM   13  C   UNK     0     -44.816   0.096  18.148  0.00  0.00     0.090 A 
HETATM   14  C   UNK     0     -44.100  -0.392  17.122  0.00  0.00     0.094 A 
HETATM   15  C   UNK     0     -44.769  -1.236  16.111  0.00  0.00     0.190 A 
HETATM   16  O   UNK     0     -44.153  -1.705  15.163  0.00  0.00    -0.287 OA
HETATM   17  C   UNK     0     -46.932  -2.262  15.414  0.00  0.00     0.085 A 
HETATM   18  C   UNK     0     -48.294  -2.472  15.629  0.00  0.00     0.077 A 
BRANCH   9  19
HETATM   19  O   UNK     0     -48.820  -0.561  18.710  0.00  0.00    -0.351 OA
HETATM   20  C   UNK     0     -49.426   0.715  18.521  0.00  0.00     0.210 C 
ENDBRANCH   9  19
BRANCH  13  21
HETATM   21  C   UNK     0     -44.204   0.953  19.184  0.00  0.00    -0.002 A 
HETATM   22  C   UNK     0     -42.983   1.588  18.938  0.00  0.00     0.014 A 
HETATM   23  C   UNK     0     -42.406   2.399  19.915  0.00  0.00     0.001 A 
HETATM   24  C   UNK     0     -43.046   2.577  21.142  0.00  0.00     0.000 A 
HETATM   25  C   UNK     0     -44.264   1.944  21.391  0.00  0.00     0.001 A 
HETATM   26  C   UNK     0     -44.842   1.134  20.413  0.00  0.00     0.014 A 
ENDBRANCH  13  21
BRANCH  17  27
HETATM   27  O   UNK     0     -46.363  -2.841  14.320  0.00  0.00    -0.360 OA
HETATM   28  H   UNK     0     -45.560  -2.364  14.062  0.00  0.00     0.217 HD
ENDBRANCH  17  27
ENDBRANCH   7   8
ENDBRANCH   5   7
BRANCH   6  29
HETATM   29  C   UNK     0     -48.491  -6.299  17.750  0.00  0.00     0.172 C 
HETATM   30  O   UNK     0     -48.328  -7.465  17.418  0.00  0.00    -0.648 OA
BRANCH  29  31
HETATM   31  O   UNK     0     -47.492  -5.467  18.130  0.00  0.00    -0.774 OA
HETATM   32  H   UNK     0     -47.007  -5.809  18.911  0.00  0.00     0.167 HD
ENDBRANCH  29  31
ENDBRANCH   6  29
BRANCH   3  33
HETATM   33  O   UNK     0     -52.867  -3.131  16.534  0.00  0.00    -0.388 OA
HETATM   34  H   UNK     0     -52.738  -2.560  17.310  0.00  0.00     0.210 HD
ENDBRANCH   3  33
BRANCH   4  35
HETATM   35  O   UNK     0     -51.189  -7.526  17.430  0.00  0.00    -0.390 OA
HETATM   36  H   UNK     0     -50.388  -8.072  17.501  0.00  0.00     0.210 HD
ENDBRANCH   4  35
BRANCH   2  37
HETATM   37  O   UNK     0     -52.848  -5.938  15.646  0.00  0.00    -0.390 OA
HETATM   38  H   UNK     0     -52.827  -5.299  14.914  0.00  0.00     0.210 HD
ENDBRANCH   2  37
TORSDOF 10
ENDMDL
MODEL 10
REMARK VINA RESULT:      -6.7      1.907      3.729
REMARK  10 active torsions:
REMARK  status: ('A' for Active; 'I' for Inactive)
REMARK    1  A    between atoms: O_2  and  C_15 
REMARK    2  A    between atoms: O_2  and  C_18 
REMARK    3  A    between atoms: O_3  and  C_12 
REMARK    4  A    between atoms: O_4  and  C_13 
REMARK    5  A    between atoms: O_5  and  C_14 
REMARK    6  A    between atoms: O_6  and  C_17 
REMARK    7  A    between atoms: O_9  and  C_19 
REMARK    8  A    between atoms: O_10  and  C_23 
REMARK    9  A    between atoms: C_16  and  C_17 
REMARK   10  A    between atoms: C_25  and  C_27 
ROOT
HETATM    1  O   UNK     0     -51.925  -1.360  15.838  0.00  0.00    -0.340 OA
HETATM    2  C   UNK     0     -52.979  -3.938  15.134  0.00  0.00     0.183 C 
HETATM    3  C   UNK     0     -51.943  -3.752  16.243  0.00  0.00     0.205 C 
HETATM    4  C   UNK     0     -53.744  -2.643  14.862  0.00  0.00     0.189 C 
HETATM    5  C   UNK     0     -51.092  -2.505  16.001  0.00  0.00     0.299 C 
HETATM    6  C   UNK     0     -52.783  -1.471  14.708  0.00  0.00     0.253 C 
ENDROOT
BRANCH   5   7
HETATM    7  O   UNK     0     -50.242  -2.325  17.133  0.00  0.00    -0.315 OA
BRANCH   7   8
HETATM    8  C   UNK     0     -48.928  -2.064  16.876  0.00  0.00     0.111 A 
HETATM    9  C   UNK     0     -48.181  -1.267  17.745  0.00  0.00     0.137 A 
HETATM   10  C   UNK     0     -46.838  -1.010  17.467  0.00  0.00     0.129 A 
HETATM   11  O   UNK     0     -46.155  -0.221  18.357  0.00  0.00    -0.306 OA
HETATM   12  C   UNK     0     -46.247  -1.548  16.325  0.00  0.00     0.084 A 
HETATM   13  C   UNK     0     -44.817   0.047  18.112  0.00  0.00     0.090 A 
HETATM   14  C   UNK     0     -44.139  -0.406  17.045  0.00  0.00     0.094 A 
HETATM   15  C   UNK     0     -44.830  -1.259  16.057  0.00  0.00     0.190 A 
HETATM   16  O   UNK     0     -44.248  -1.696  15.073  0.00  0.00    -0.287 OA
HETATM   17  C   UNK     0     -46.992  -2.345  15.454  0.00  0.00     0.085 A 
HETATM   18  C   UNK     0     -48.334  -2.601  15.733  0.00  0.00     0.077 A 
BRANCH   9  19
HETATM   19  O   UNK     0     -48.766  -0.744  18.861  0.00  0.00    -0.351 OA
HETATM   20  C   UNK     0     -49.422   0.514  18.719  0.00  0.00     0.210 C 
ENDBRANCH   9  19
BRANCH  13  21
HETATM   21  C   UNK     0     -44.182   0.910  19.127  0.00  0.00    -0.002 A 
HETATM   22  C   UNK     0     -43.002   1.597  18.826  0.00  0.00     0.014 A 
HETATM   23  C   UNK     0     -42.402   2.414  19.784  0.00  0.00     0.001 A 
HETATM   24  C   UNK     0     -42.979   2.547  21.047  0.00  0.00     0.000 A 
HETATM   25  C   UNK     0     -44.156   1.863  21.352  0.00  0.00     0.001 A 
HETATM   26  C   UNK     0     -44.756   1.046  20.393  0.00  0.00     0.014 A 
ENDBRANCH  13  21
BRANCH  17  27
HETATM   27  O   UNK     0     -46.460  -2.893  14.325  0.00  0.00    -0.360 OA
HETATM   28  H   UNK     0     -46.089  -3.767  14.514  0.00  0.00     0.217 HD
ENDBRANCH  17  27
ENDBRANCH   7   8
ENDBRANCH   5   7
BRANCH   6  29
HETATM   29  C   UNK     0     -53.520  -0.171  14.707  0.00  0.00     0.172 C 
HETATM   30  O   UNK     0     -53.119   0.863  14.190  0.00  0.00    -0.648 OA
BRANCH  29  31
HETATM   31  O   UNK     0     -54.700  -0.287  15.362  0.00  0.00    -0.774 OA
HETATM   32  H   UNK     0     -55.195   0.560  15.381  0.00  0.00     0.167 HD
ENDBRANCH  29  31
ENDBRANCH   6  29
BRANCH   3  33
HETATM   33  O   UNK     0     -51.076  -4.885  16.276  0.00  0.00    -0.388 OA
HETATM   34  H   UNK     0     -50.376  -4.740  15.617  0.00  0.00     0.210 HD
ENDBRANCH   3  33
BRANCH   4  35
HETATM   35  O   UNK     0     -54.489  -2.785  13.653  0.00  0.00    -0.390 OA
HETATM   36  H   UNK     0     -54.604  -1.902  13.264  0.00  0.00     0.210 HD
ENDBRANCH   4  35
BRANCH   2  37
HETATM   37  O   UNK     0     -53.924  -4.935  15.528  0.00  0.00    -0.390 OA
HETATM   38  H   UNK     0     -53.801  -5.099  16.478  0.00  0.00     0.210 HD
ENDBRANCH   2  37
TORSDOF 10
ENDMDL
