MODEL 1
REMARK VINA RESULT:      -7.3      0.000      0.000
REMARK  10 active torsions:
REMARK  status: ('A' for Active; 'I' for Inactive)
REMARK    1  A    between atoms: O_2  and  C_15 
REMARK    2  A    between atoms: O_2  and  C_18 
REMARK    3  A    between atoms: O_3  and  C_12 
REMARK    4  A    between atoms: O_4  and  C_13 
REMARK    5  A    between atoms: O_5  and  C_14 
REMARK    6  A    between atoms: O_6  and  C_17 
REMARK    7  A    between atoms: O_9  and  C_20 
REMARK    8  A    between atoms: O_10  and  C_23 
REMARK    9  A    between atoms: C_16  and  C_17 
REMARK   10  A    between atoms: C_25  and  C_27 
ROOT
HETATM    1  O   UNK     0     -47.638  -0.949  16.360  0.00  0.00    -0.340 OA
HETATM    2  C   UNK     0     -49.779  -1.290  14.474  0.00  0.00     0.183 C 
HETATM    3  C   UNK     0     -49.869  -0.314  15.648  0.00  0.00     0.205 C 
HETATM    4  C   UNK     0     -48.326  -1.609  14.124  0.00  0.00     0.189 C 
HETATM    5  C   UNK     0     -48.978  -0.760  16.807  0.00  0.00     0.299 C 
HETATM    6  C   UNK     0     -47.535  -1.972  15.375  0.00  0.00     0.253 C 
ENDROOT
BRANCH   5   7
HETATM    7  O   UNK     0     -49.013   0.259  17.807  0.00  0.00    -0.315 OA
BRANCH   7   8
HETATM    8  C   UNK     0     -48.070   0.184  18.790  0.00  0.00     0.110 A 
HETATM    9  C   UNK     0     -46.890   0.916  18.662  0.00  0.00     0.078 A 
HETATM   10  C   UNK     0     -45.918   0.846  19.662  0.00  0.00     0.096 A 
HETATM   11  O   UNK     0     -44.779   1.587  19.481  0.00  0.00    -0.309 OA
HETATM   12  C   UNK     0     -46.130   0.046  20.783  0.00  0.00     0.084 A 
HETATM   13  C   UNK     0     -43.799   1.543  20.461  0.00  0.00     0.090 A 
HETATM   14  C   UNK     0     -43.883   0.808  21.581  0.00  0.00     0.094 A 
HETATM   15  C   UNK     0     -45.089  -0.010  21.821  0.00  0.00     0.190 A 
HETATM   16  O   UNK     0     -45.206  -0.693  22.829  0.00  0.00    -0.287 OA
HETATM   17  C   UNK     0     -47.311  -0.689  20.915  0.00  0.00     0.118 A 
HETATM   18  C   UNK     0     -48.280  -0.617  19.914  0.00  0.00     0.134 A 
BRANCH  13  19
HETATM   19  C   UNK     0     -42.615   2.374  20.163  0.00  0.00    -0.002 A 
HETATM   20  C   UNK     0     -42.300   2.699  18.841  0.00  0.00     0.014 A 
HETATM   21  C   UNK     0     -41.181   3.484  18.561  0.00  0.00     0.001 A 
HETATM   22  C   UNK     0     -40.375   3.947  19.600  0.00  0.00     0.000 A 
HETATM   23  C   UNK     0     -40.686   3.625  20.921  0.00  0.00     0.001 A 
HETATM   24  C   UNK     0     -41.805   2.839  21.202  0.00  0.00     0.014 A 
ENDBRANCH  13  19
BRANCH  17  25
HETATM   25  O   UNK     0     -47.552  -1.481  21.997  0.00  0.00    -0.357 OA
HETATM   26  H   UNK     0     -46.851  -2.143  22.103  0.00  0.00     0.217 HD
ENDBRANCH  17  25
BRANCH  18  27
HETATM   27  O   UNK     0     -49.438  -1.330  20.031  0.00  0.00    -0.356 OA
HETATM   28  H   UNK     0     -49.880  -1.065  20.856  0.00  0.00     0.218 HD
ENDBRANCH  18  27
ENDBRANCH   7   8
ENDBRANCH   5   7
BRANCH   6  29
HETATM   29  C   UNK     0     -46.070  -2.024  15.087  0.00  0.00     0.172 C 
HETATM   30  O   UNK     0     -45.243  -1.230  15.508  0.00  0.00    -0.648 OA
BRANCH  29  31
HETATM   31  O   UNK     0     -45.778  -3.078  14.285  0.00  0.00    -0.774 OA
HETATM   32  H   UNK     0     -45.649  -3.904  14.798  0.00  0.00     0.167 HD
ENDBRANCH  29  31
ENDBRANCH   6  29
BRANCH   3  33
HETATM   33  O   UNK     0     -51.217  -0.258  16.115  0.00  0.00    -0.388 OA
HETATM   34  H   UNK     0     -51.713   0.322  15.514  0.00  0.00     0.210 HD
ENDBRANCH   3  33
BRANCH   4  35
HETATM   35  O   UNK     0     -48.294  -2.716  13.226  0.00  0.00    -0.390 OA
HETATM   36  H   UNK     0     -47.444  -2.697  12.753  0.00  0.00     0.210 HD
ENDBRANCH   4  35
BRANCH   2  37
HETATM   37  O   UNK     0     -50.394  -0.709  13.323  0.00  0.00    -0.390 OA
HETATM   38  H   UNK     0     -49.686  -0.376  12.747  0.00  0.00     0.210 HD
ENDBRANCH   2  37
TORSDOF 10
ENDMDL
MODEL 2
REMARK VINA RESULT:      -7.2      5.571      7.844
REMARK  10 active torsions:
REMARK  status: ('A' for Active; 'I' for Inactive)
REMARK    1  A    between atoms: O_2  and  C_15 
REMARK    2  A    between atoms: O_2  and  C_18 
REMARK    3  A    between atoms: O_3  and  C_12 
REMARK    4  A    between atoms: O_4  and  C_13 
REMARK    5  A    between atoms: O_5  and  C_14 
REMARK    6  A    between atoms: O_6  and  C_17 
REMARK    7  A    between atoms: O_9  and  C_20 
REMARK    8  A    between atoms: O_10  and  C_23 
REMARK    9  A    between atoms: C_16  and  C_17 
REMARK   10  A    between atoms: C_25  and  C_27 
ROOT
HETATM    1  O   UNK     0     -48.290  -1.904  16.365  0.00  0.00    -0.340 OA
HETATM    2  C   UNK     0     -49.915  -1.231  14.093  0.00  0.00     0.183 C 
HETATM    3  C   UNK     0     -50.495  -1.877  15.351  0.00  0.00     0.205 C 
HETATM    4  C   UNK     0     -48.593  -0.524  14.387  0.00  0.00     0.189 C 
HETATM    5  C   UNK     0     -49.438  -2.702  16.086  0.00  0.00     0.299 C 
HETATM    6  C   UNK     0     -47.659  -1.431  15.180  0.00  0.00     0.253 C 
ENDROOT
BRANCH   5   7
HETATM    7  O   UNK     0     -50.012  -3.165  17.310  0.00  0.00    -0.315 OA
BRANCH   7   8
HETATM    8  C   UNK     0     -49.919  -4.502  17.561  0.00  0.00     0.110 A 
HETATM    9  C   UNK     0     -48.720  -5.024  18.047  0.00  0.00     0.078 A 
HETATM   10  C   UNK     0     -48.615  -6.392  18.308  0.00  0.00     0.096 A 
HETATM   11  O   UNK     0     -47.412  -6.847  18.783  0.00  0.00    -0.309 OA
HETATM   12  C   UNK     0     -49.705  -7.229  18.081  0.00  0.00     0.084 A 
HETATM   13  C   UNK     0     -47.280  -8.200  19.058  0.00  0.00     0.090 A 
HETATM   14  C   UNK     0     -48.253  -9.106  18.877  0.00  0.00     0.094 A 
HETATM   15  C   UNK     0     -49.566  -8.666  18.363  0.00  0.00     0.190 A 
HETATM   16  O   UNK     0     -50.480  -9.460  18.185  0.00  0.00    -0.287 OA
HETATM   17  C   UNK     0     -50.907  -6.710  17.595  0.00  0.00     0.118 A 
HETATM   18  C   UNK     0     -51.010  -5.343  17.335  0.00  0.00     0.134 A 
BRANCH  13  19
HETATM   19  C   UNK     0     -45.944  -8.583  19.560  0.00  0.00    -0.002 A 
HETATM   20  C   UNK     0     -45.618  -8.387  20.905  0.00  0.00     0.014 A 
HETATM   21  C   UNK     0     -44.357  -8.750  21.379  0.00  0.00     0.001 A 
HETATM   22  C   UNK     0     -43.419  -9.309  20.512  0.00  0.00     0.000 A 
HETATM   23  C   UNK     0     -43.742  -9.506  19.168  0.00  0.00     0.001 A 
HETATM   24  C   UNK     0     -45.003  -9.143  18.694  0.00  0.00     0.014 A 
ENDBRANCH  13  19
BRANCH  17  25
HETATM   25  O   UNK     0     -51.994  -7.499  17.362  0.00  0.00    -0.357 OA
HETATM   26  H   UNK     0     -51.784  -8.195  16.721  0.00  0.00     0.217 HD
ENDBRANCH  17  25
BRANCH  18  27
HETATM   27  O   UNK     0     -52.179  -4.824  16.860  0.00  0.00    -0.356 OA
HETATM   28  H   UNK     0     -52.820  -5.549  16.759  0.00  0.00     0.218 HD
ENDBRANCH  18  27
ENDBRANCH   7   8
ENDBRANCH   5   7
BRANCH   6  29
HETATM   29  C   UNK     0     -46.484  -0.668  15.698  0.00  0.00     0.172 C 
HETATM   30  O   UNK     0     -46.409  -0.162  16.808  0.00  0.00    -0.648 OA
BRANCH  29  31
HETATM   31  O   UNK     0     -45.504  -0.607  14.765  0.00  0.00    -0.774 OA
HETATM   32  H   UNK     0     -45.254   0.318  14.555  0.00  0.00     0.167 HD
ENDBRANCH  29  31
ENDBRANCH   6  29
BRANCH   3  33
HETATM   33  O   UNK     0     -51.567  -2.747  14.987  0.00  0.00    -0.388 OA
HETATM   34  H   UNK     0     -52.213  -2.739  15.713  0.00  0.00     0.210 HD
ENDBRANCH   3  33
BRANCH   4  35
HETATM   35  O   UNK     0     -47.961  -0.183  13.155  0.00  0.00    -0.390 OA
HETATM   36  H   UNK     0     -48.655  -0.059  12.485  0.00  0.00     0.210 HD
ENDBRANCH   4  35
BRANCH   2  37
HETATM   37  O   UNK     0     -50.834  -0.260  13.590  0.00  0.00    -0.390 OA
HETATM   38  H   UNK     0     -50.808   0.507  14.186  0.00  0.00     0.210 HD
ENDBRANCH   2  37
TORSDOF 10
ENDMDL
MODEL 3
REMARK VINA RESULT:      -7.2      6.066      8.192
REMARK  10 active torsions:
REMARK  status: ('A' for Active; 'I' for Inactive)
REMARK    1  A    between atoms: O_2  and  C_15 
REMARK    2  A    between atoms: O_2  and  C_18 
REMARK    3  A    between atoms: O_3  and  C_12 
REMARK    4  A    between atoms: O_4  and  C_13 
REMARK    5  A    between atoms: O_5  and  C_14 
REMARK    6  A    between atoms: O_6  and  C_17 
REMARK    7  A    between atoms: O_9  and  C_20 
REMARK    8  A    between atoms: O_10  and  C_23 
REMARK    9  A    between atoms: C_16  and  C_17 
REMARK   10  A    between atoms: C_25  and  C_27 
ROOT
HETATM    1  O   UNK     0     -47.992  -2.597  17.287  0.00  0.00    -0.340 OA
HETATM    2  C   UNK     0     -47.982  -2.081  14.460  0.00  0.00     0.183 C 
HETATM    3  C   UNK     0     -49.083  -2.895  15.140  0.00  0.00     0.205 C 
HETATM    4  C   UNK     0     -47.264  -1.172  15.457  0.00  0.00     0.189 C 
HETATM    5  C   UNK     0     -48.569  -3.566  16.414  0.00  0.00     0.299 C 
HETATM    6  C   UNK     0     -46.866  -1.948  16.707  0.00  0.00     0.253 C 
ENDROOT
BRANCH   5   7
HETATM    7  O   UNK     0     -49.676  -4.196  17.058  0.00  0.00    -0.315 OA
BRANCH   7   8
HETATM    8  C   UNK     0     -49.488  -5.480  17.478  0.00  0.00     0.110 A 
HETATM    9  C   UNK     0     -48.263  -5.844  18.038  0.00  0.00     0.078 A 
HETATM   10  C   UNK     0     -48.061  -7.155  18.472  0.00  0.00     0.096 A 
HETATM   11  O   UNK     0     -46.836  -7.454  19.012  0.00  0.00    -0.309 OA
HETATM   12  C   UNK     0     -49.081  -8.096  18.344  0.00  0.00     0.084 A 
HETATM   13  C   UNK     0     -46.609  -8.747  19.458  0.00  0.00     0.090 A 
HETATM   14  C   UNK     0     -47.508  -9.741  19.385  0.00  0.00     0.094 A 
HETATM   15  C   UNK     0     -48.840  -9.471  18.807  0.00  0.00     0.190 A 
HETATM   16  O   UNK     0     -49.689 -10.348  18.724  0.00  0.00    -0.287 OA
HETATM   17  C   UNK     0     -50.309  -7.735  17.784  0.00  0.00     0.118 A 
HETATM   18  C   UNK     0     -50.509  -6.424  17.352  0.00  0.00     0.134 A 
BRANCH  13  19
HETATM   19  C   UNK     0     -45.258  -8.960  20.017  0.00  0.00    -0.002 A 
HETATM   20  C   UNK     0     -44.964  -8.544  21.319  0.00  0.00     0.014 A 
HETATM   21  C   UNK     0     -43.689  -8.746  21.847  0.00  0.00     0.001 A 
HETATM   22  C   UNK     0     -42.705  -9.365  21.077  0.00  0.00     0.000 A 
HETATM   23  C   UNK     0     -42.995  -9.782  19.777  0.00  0.00     0.001 A 
HETATM   24  C   UNK     0     -44.270  -9.579  19.249  0.00  0.00     0.014 A 
ENDBRANCH  13  19
BRANCH  17  25
HETATM   25  O   UNK     0     -51.330  -8.628  17.644  0.00  0.00    -0.357 OA
HETATM   26  H   UNK     0     -51.282  -9.316  18.326  0.00  0.00     0.217 HD
ENDBRANCH  17  25
BRANCH  18  27
HETATM   27  O   UNK     0     -51.704  -6.060  16.803  0.00  0.00    -0.356 OA
HETATM   28  H   UNK     0     -51.754  -5.088  16.791  0.00  0.00     0.218 HD
ENDBRANCH  18  27
ENDBRANCH   7   8
ENDBRANCH   5   7
BRANCH   6  29
HETATM   29  C   UNK     0     -46.408  -1.024  17.788  0.00  0.00     0.172 C 
HETATM   30  O   UNK     0     -45.930  -1.376  18.857  0.00  0.00    -0.648 OA
BRANCH  29  31
HETATM   31  O   UNK     0     -46.597   0.268  17.426  0.00  0.00    -0.774 OA
HETATM   32  H   UNK     0     -45.763   0.692  17.132  0.00  0.00     0.167 HD
ENDBRANCH  29  31
ENDBRANCH   6  29
BRANCH   3  33
HETATM   33  O   UNK     0     -49.536  -3.915  14.249  0.00  0.00    -0.388 OA
HETATM   34  H   UNK     0     -49.313  -3.637  13.345  0.00  0.00     0.210 HD
ENDBRANCH   3  33
BRANCH   4  35
HETATM   35  O   UNK     0     -46.085  -0.650  14.848  0.00  0.00    -0.390 OA
HETATM   36  H   UNK     0     -45.639  -1.377  14.381  0.00  0.00     0.210 HD
ENDBRANCH   4  35
BRANCH   2  37
HETATM   37  O   UNK     0     -48.557  -1.256  13.445  0.00  0.00    -0.390 OA
HETATM   38  H   UNK     0     -48.120  -0.390  13.487  0.00  0.00     0.210 HD
ENDBRANCH   2  37
TORSDOF 10
ENDMDL
MODEL 4
REMARK VINA RESULT:      -7.0      2.843      5.902
REMARK  10 active torsions:
REMARK  status: ('A' for Active; 'I' for Inactive)
REMARK    1  A    between atoms: O_2  and  C_15 
REMARK    2  A    between atoms: O_2  and  C_18 
REMARK    3  A    between atoms: O_3  and  C_12 
REMARK    4  A    between atoms: O_4  and  C_13 
REMARK    5  A    between atoms: O_5  and  C_14 
REMARK    6  A    between atoms: O_6  and  C_17 
REMARK    7  A    between atoms: O_9  and  C_20 
REMARK    8  A    between atoms: O_10  and  C_23 
REMARK    9  A    between atoms: C_16  and  C_17 
REMARK   10  A    between atoms: C_25  and  C_27 
ROOT
HETATM    1  O   UNK     0     -52.267   1.510  16.931  0.00  0.00    -0.340 OA
HETATM    2  C   UNK     0     -52.335   2.656  14.297  0.00  0.00     0.183 C 
HETATM    3  C   UNK     0     -51.884   1.218  14.553  0.00  0.00     0.205 C 
HETATM    4  C   UNK     0     -53.212   3.177  15.435  0.00  0.00     0.189 C 
HETATM    5  C   UNK     0     -51.321   1.057  15.965  0.00  0.00     0.299 C 
HETATM    6  C   UNK     0     -52.568   2.894  16.787  0.00  0.00     0.253 C 
ENDROOT
BRANCH   5   7
HETATM    7  O   UNK     0     -51.044  -0.328  16.175  0.00  0.00    -0.315 OA
BRANCH   7   8
HETATM    8  C   UNK     0     -49.761  -0.734  15.954  0.00  0.00     0.110 A 
HETATM    9  C   UNK     0     -48.743  -0.267  16.786  0.00  0.00     0.078 A 
HETATM   10  C   UNK     0     -47.427  -0.677  16.569  0.00  0.00     0.096 A 
HETATM   11  O   UNK     0     -46.470  -0.184  17.419  0.00  0.00    -0.309 OA
HETATM   12  C   UNK     0     -47.133  -1.550  15.523  0.00  0.00     0.084 A 
HETATM   13  C   UNK     0     -45.154  -0.580  17.232  0.00  0.00     0.090 A 
HETATM   14  C   UNK     0     -44.745  -1.409  16.259  0.00  0.00     0.094 A 
HETATM   15  C   UNK     0     -45.737  -1.964  15.316  0.00  0.00     0.190 A 
HETATM   16  O   UNK     0     -45.406  -2.725  14.416  0.00  0.00    -0.287 OA
HETATM   17  C   UNK     0     -48.149  -2.020  14.688  0.00  0.00     0.118 A 
HETATM   18  C   UNK     0     -49.464  -1.608  14.907  0.00  0.00     0.134 A 
BRANCH  13  19
HETATM   19  C   UNK     0     -44.206   0.013  18.198  0.00  0.00    -0.002 A 
HETATM   20  C   UNK     0     -43.205  -0.776  18.771  0.00  0.00     0.014 A 
HETATM   21  C   UNK     0     -42.309  -0.216  19.683  0.00  0.00     0.001 A 
HETATM   22  C   UNK     0     -42.411   1.133  20.023  0.00  0.00     0.000 A 
HETATM   23  C   UNK     0     -43.410   1.923  19.452  0.00  0.00     0.001 A 
HETATM   24  C   UNK     0     -44.305   1.363  18.541  0.00  0.00     0.014 A 
ENDBRANCH  13  19
BRANCH  17  25
HETATM   25  O   UNK     0     -47.899  -2.874  13.655  0.00  0.00    -0.357 OA
HETATM   26  H   UNK     0     -48.060  -3.792  13.921  0.00  0.00     0.217 HD
ENDBRANCH  17  25
BRANCH  18  27
HETATM   27  O   UNK     0     -50.466  -2.060  14.097  0.00  0.00    -0.356 OA
HETATM   28  H   UNK     0     -50.195  -1.931  13.172  0.00  0.00     0.218 HD
ENDBRANCH  18  27
ENDBRANCH   7   8
ENDBRANCH   5   7
BRANCH   6  29
HETATM   29  C   UNK     0     -53.527   3.155  17.902  0.00  0.00     0.172 C 
HETATM   30  O   UNK     0     -53.958   2.307  18.670  0.00  0.00    -0.648 OA
BRANCH  29  31
HETATM   31  O   UNK     0     -53.861   4.467  17.949  0.00  0.00    -0.774 OA
HETATM   32  H   UNK     0     -53.294   4.968  18.573  0.00  0.00     0.167 HD
ENDBRANCH  29  31
ENDBRANCH   6  29
BRANCH   3  33
HETATM   33  O   UNK     0     -50.860   0.869  13.621  0.00  0.00    -0.388 OA
HETATM   34  H   UNK     0     -50.560  -0.030  13.835  0.00  0.00     0.210 HD
ENDBRANCH   3  33
BRANCH   4  35
HETATM   35  O   UNK     0     -53.375   4.586  15.292  0.00  0.00    -0.390 OA
HETATM   36  H   UNK     0     -53.905   4.906  16.042  0.00  0.00     0.210 HD
ENDBRANCH   4  35
BRANCH   2  37
HETATM   37  O   UNK     0     -53.098   2.708  13.091  0.00  0.00    -0.390 OA
HETATM   38  H   UNK     0     -53.439   3.613  12.996  0.00  0.00     0.210 HD
ENDBRANCH   2  37
TORSDOF 10
ENDMDL
MODEL 5
REMARK VINA RESULT:      -7.0      2.937      4.389
REMARK  10 active torsions:
REMARK  status: ('A' for Active; 'I' for Inactive)
REMARK    1  A    between atoms: O_2  and  C_15 
REMARK    2  A    between atoms: O_2  and  C_18 
REMARK    3  A    between atoms: O_3  and  C_12 
REMARK    4  A    between atoms: O_4  and  C_13 
REMARK    5  A    between atoms: O_5  and  C_14 
REMARK    6  A    between atoms: O_6  and  C_17 
REMARK    7  A    between atoms: O_9  and  C_20 
REMARK    8  A    between atoms: O_10  and  C_23 
REMARK    9  A    between atoms: C_16  and  C_17 
REMARK   10  A    between atoms: C_25  and  C_27 
ROOT
HETATM    1  O   UNK     0     -47.522  -3.283  16.426  0.00  0.00    -0.340 OA
HETATM    2  C   UNK     0     -49.369  -2.199  14.511  0.00  0.00     0.183 C 
HETATM    3  C   UNK     0     -47.904  -1.767  14.571  0.00  0.00     0.205 C 
HETATM    4  C   UNK     0     -49.573  -3.570  15.154  0.00  0.00     0.189 C 
HETATM    5  C   UNK     0     -47.332  -1.943  15.978  0.00  0.00     0.299 C 
HETATM    6  C   UNK     0     -48.899  -3.633  16.519  0.00  0.00     0.253 C 
ENDROOT
BRANCH   5   7
HETATM    7  O   UNK     0     -45.936  -1.645  15.927  0.00  0.00    -0.315 OA
BRANCH   7   8
HETATM    8  C   UNK     0     -45.401  -1.038  17.025  0.00  0.00     0.110 A 
HETATM    9  C   UNK     0     -46.165  -0.110  17.733  0.00  0.00     0.078 A 
HETATM   10  C   UNK     0     -45.627   0.517  18.858  0.00  0.00     0.096 A 
HETATM   11  O   UNK     0     -46.424   1.421  19.512  0.00  0.00    -0.309 OA
HETATM   12  C   UNK     0     -44.330   0.214  19.270  0.00  0.00     0.084 A 
HETATM   13  C   UNK     0     -45.919   2.054  20.638  0.00  0.00     0.090 A 
HETATM   14  C   UNK     0     -44.686   1.852  21.129  0.00  0.00     0.094 A 
HETATM   15  C   UNK     0     -43.788   0.891  20.458  0.00  0.00     0.190 A 
HETATM   16  O   UNK     0     -42.657   0.676  20.875  0.00  0.00    -0.287 OA
HETATM   17  C   UNK     0     -43.563  -0.715  18.564  0.00  0.00     0.118 A 
HETATM   18  C   UNK     0     -44.103  -1.340  17.440  0.00  0.00     0.134 A 
BRANCH  13  19
HETATM   19  C   UNK     0     -46.858   3.009  21.261  0.00  0.00    -0.002 A 
HETATM   20  C   UNK     0     -48.017   3.397  20.584  0.00  0.00     0.014 A 
HETATM   21  C   UNK     0     -48.904   4.298  21.174  0.00  0.00     0.001 A 
HETATM   22  C   UNK     0     -48.635   4.813  22.442  0.00  0.00     0.000 A 
HETATM   23  C   UNK     0     -47.479   4.428  23.120  0.00  0.00     0.001 A 
HETATM   24  C   UNK     0     -46.592   3.527  22.531  0.00  0.00     0.014 A 
ENDBRANCH  13  19
BRANCH  17  25
HETATM   25  O   UNK     0     -42.292  -1.036  18.938  0.00  0.00    -0.357 OA
HETATM   26  H   UNK     0     -41.891  -0.316  19.450  0.00  0.00     0.217 HD
ENDBRANCH  17  25
BRANCH  18  27
HETATM   27  O   UNK     0     -43.363  -2.249  16.742  0.00  0.00    -0.356 OA
HETATM   28  H   UNK     0     -42.812  -2.747  17.371  0.00  0.00     0.218 HD
ENDBRANCH  18  27
ENDBRANCH   7   8
ENDBRANCH   5   7
BRANCH   6  29
HETATM   29  C   UNK     0     -48.863  -5.034  17.035  0.00  0.00     0.172 C 
HETATM   30  O   UNK     0     -49.655  -5.915  16.731  0.00  0.00    -0.648 OA
BRANCH  29  31
HETATM   31  O   UNK     0     -47.829  -5.202  17.894  0.00  0.00    -0.774 OA
HETATM   32  H   UNK     0     -47.051  -4.660  17.643  0.00  0.00     0.167 HD
ENDBRANCH  29  31
ENDBRANCH   6  29
BRANCH   3  33
HETATM   33  O   UNK     0     -47.801  -0.387  14.216  0.00  0.00    -0.388 OA
HETATM   34  H   UNK     0     -48.324  -0.251  13.409  0.00  0.00     0.210 HD
ENDBRANCH   3  33
BRANCH   4  35
HETATM   35  O   UNK     0     -50.970  -3.803  15.322  0.00  0.00    -0.390 OA
HETATM   36  H   UNK     0     -51.445  -3.002  15.043  0.00  0.00     0.210 HD
ENDBRANCH   4  35
BRANCH   2  37
HETATM   37  O   UNK     0     -49.785  -2.283  13.147  0.00  0.00    -0.390 OA
HETATM   38  H   UNK     0     -50.583  -2.837  13.115  0.00  0.00     0.210 HD
ENDBRANCH   2  37
TORSDOF 10
ENDMDL
MODEL 6
REMARK VINA RESULT:      -7.0      4.870      6.891
REMARK  10 active torsions:
REMARK  status: ('A' for Active; 'I' for Inactive)
REMARK    1  A    between atoms: O_2  and  C_15 
REMARK    2  A    between atoms: O_2  and  C_18 
REMARK    3  A    between atoms: O_3  and  C_12 
REMARK    4  A    between atoms: O_4  and  C_13 
REMARK    5  A    between atoms: O_5  and  C_14 
REMARK    6  A    between atoms: O_6  and  C_17 
REMARK    7  A    between atoms: O_9  and  C_20 
REMARK    8  A    between atoms: O_10  and  C_23 
REMARK    9  A    between atoms: C_16  and  C_17 
REMARK   10  A    between atoms: C_25  and  C_27 
ROOT
HETATM    1  O   UNK     0     -47.826  -7.487  18.138  0.00  0.00    -0.340 OA
HETATM    2  C   UNK     0     -49.601  -7.929  20.354  0.00  0.00     0.183 C 
HETATM    3  C   UNK     0     -50.073  -7.308  19.039  0.00  0.00     0.205 C 
HETATM    4  C   UNK     0     -48.321  -8.741  20.161  0.00  0.00     0.189 C 
HETATM    5  C   UNK     0     -48.925  -6.597  18.321  0.00  0.00     0.299 C 
HETATM    6  C   UNK     0     -47.288  -7.943  19.375  0.00  0.00     0.253 C 
ENDROOT
BRANCH   5   7
HETATM    7  O   UNK     0     -49.406  -6.158  17.049  0.00  0.00    -0.315 OA
BRANCH   7   8
HETATM    8  C   UNK     0     -49.005  -4.921  16.639  0.00  0.00     0.110 A 
HETATM    9  C   UNK     0     -47.927  -4.305  17.276  0.00  0.00     0.078 A 
HETATM   10  C   UNK     0     -47.509  -3.039  16.864  0.00  0.00     0.096 A 
HETATM   11  O   UNK     0     -46.445  -2.484  17.528  0.00  0.00    -0.309 OA
HETATM   12  C   UNK     0     -48.169  -2.394  15.819  0.00  0.00     0.084 A 
HETATM   13  C   UNK     0     -46.003  -1.230  17.135  0.00  0.00     0.090 A 
HETATM   14  C   UNK     0     -46.557  -0.507  16.149  0.00  0.00     0.094 A 
HETATM   15  C   UNK     0     -47.708  -1.059  15.406  0.00  0.00     0.190 A 
HETATM   16  O   UNK     0     -48.241  -0.434  14.499  0.00  0.00    -0.287 OA
HETATM   17  C   UNK     0     -49.248  -3.007  15.179  0.00  0.00     0.118 A 
HETATM   18  C   UNK     0     -49.664  -4.273  15.593  0.00  0.00     0.134 A 
BRANCH  13  19
HETATM   19  C   UNK     0     -44.857  -0.725  17.919  0.00  0.00    -0.002 A 
HETATM   20  C   UNK     0     -43.908  -1.616  18.427  0.00  0.00     0.014 A 
HETATM   21  C   UNK     0     -42.824  -1.139  19.165  0.00  0.00     0.001 A 
HETATM   22  C   UNK     0     -42.686   0.229  19.398  0.00  0.00     0.000 A 
HETATM   23  C   UNK     0     -43.632   1.121  18.892  0.00  0.00     0.001 A 
HETATM   24  C   UNK     0     -44.715   0.644  18.154  0.00  0.00     0.014 A 
ENDBRANCH  13  19
BRANCH  17  25
HETATM   25  O   UNK     0     -49.916  -2.407  14.154  0.00  0.00    -0.357 OA
HETATM   26  H   UNK     0     -50.849  -2.275  14.381  0.00  0.00     0.217 HD
ENDBRANCH  17  25
BRANCH  18  27
HETATM   27  O   UNK     0     -50.717  -4.882  14.975  0.00  0.00    -0.356 OA
HETATM   28  H   UNK     0     -51.510  -4.333  15.105  0.00  0.00     0.218 HD
ENDBRANCH  18  27
ENDBRANCH   7   8
ENDBRANCH   5   7
BRANCH   6  29
HETATM   29  C   UNK     0     -46.148  -8.811  18.953  0.00  0.00     0.172 C 
HETATM   30  O   UNK     0     -45.059  -8.406  18.575  0.00  0.00    -0.648 OA
BRANCH  29  31
HETATM   31  O   UNK     0     -46.485 -10.121  19.044  0.00  0.00    -0.774 OA
HETATM   32  H   UNK     0     -46.887 -10.337  19.912  0.00  0.00     0.167 HD
ENDBRANCH  29  31
ENDBRANCH   6  29
BRANCH   3  33
HETATM   33  O   UNK     0     -51.095  -6.348  19.307  0.00  0.00    -0.388 OA
HETATM   34  H   UNK     0     -50.796  -5.493  18.958  0.00  0.00     0.210 HD
ENDBRANCH   3  33
BRANCH   4  35
HETATM   35  O   UNK     0     -47.775  -9.063  21.439  0.00  0.00    -0.390 OA
HETATM   36  H   UNK     0     -47.109  -9.760  21.315  0.00  0.00     0.210 HD
ENDBRANCH   4  35
BRANCH   2  37
HETATM   37  O   UNK     0     -50.611  -8.807  20.855  0.00  0.00    -0.390 OA
HETATM   38  H   UNK     0     -50.991  -8.396  21.649  0.00  0.00     0.210 HD
ENDBRANCH   2  37
TORSDOF 10
ENDMDL
MODEL 7
REMARK VINA RESULT:      -6.9      1.682      3.511
REMARK  10 active torsions:
REMARK  status: ('A' for Active; 'I' for Inactive)
REMARK    1  A    between atoms: O_2  and  C_15 
REMARK    2  A    between atoms: O_2  and  C_18 
REMARK    3  A    between atoms: O_3  and  C_12 
REMARK    4  A    between atoms: O_4  and  C_13 
REMARK    5  A    between atoms: O_5  and  C_14 
REMARK    6  A    between atoms: O_6  and  C_17 
REMARK    7  A    between atoms: O_9  and  C_20 
REMARK    8  A    between atoms: O_10  and  C_23 
REMARK    9  A    between atoms: C_16  and  C_17 
REMARK   10  A    between atoms: C_25  and  C_27 
ROOT
HETATM    1  O   UNK     0     -47.196  -1.020  17.703  0.00  0.00    -0.340 OA
HETATM    2  C   UNK     0     -45.910  -1.832  15.265  0.00  0.00     0.183 C 
HETATM    3  C   UNK     0     -45.302  -2.104  16.641  0.00  0.00     0.205 C 
HETATM    4  C   UNK     0     -47.419  -1.610  15.355  0.00  0.00     0.189 C 
HETATM    5  C   UNK     0     -45.772  -1.072  17.667  0.00  0.00     0.299 C 
HETATM    6  C   UNK     0     -47.754  -0.613  16.458  0.00  0.00     0.253 C 
ENDROOT
BRANCH   5   7
HETATM    7  O   UNK     0     -45.271  -1.463  18.946  0.00  0.00    -0.315 OA
BRANCH   7   8
HETATM    8  C   UNK     0     -45.093  -0.468  19.862  0.00  0.00     0.110 A 
HETATM    9  C   UNK     0     -44.011   0.401  19.725  0.00  0.00     0.078 A 
HETATM   10  C   UNK     0     -43.819   1.423  20.657  0.00  0.00     0.096 A 
HETATM   11  O   UNK     0     -42.738   2.245  20.471  0.00  0.00    -0.309 OA
HETATM   12  C   UNK     0     -44.708   1.570  21.720  0.00  0.00     0.084 A 
HETATM   13  C   UNK     0     -42.526   3.273  21.377  0.00  0.00     0.090 A 
HETATM   14  C   UNK     0     -43.307   3.514  22.442  0.00  0.00     0.094 A 
HETATM   15  C   UNK     0     -44.482   2.654  22.688  0.00  0.00     0.190 A 
HETATM   16  O   UNK     0     -45.220   2.841  23.646  0.00  0.00    -0.287 OA
HETATM   17  C   UNK     0     -45.793   0.702  21.860  0.00  0.00     0.118 A 
HETATM   18  C   UNK     0     -45.982  -0.318  20.927  0.00  0.00     0.134 A 
BRANCH  13  19
HETATM   19  C   UNK     0     -41.333   4.094  21.085  0.00  0.00    -0.002 A 
HETATM   20  C   UNK     0     -40.799   4.930  22.070  0.00  0.00     0.014 A 
HETATM   21  C   UNK     0     -39.672   5.704  21.794  0.00  0.00     0.001 A 
HETATM   22  C   UNK     0     -39.075   5.645  20.536  0.00  0.00     0.000 A 
HETATM   23  C   UNK     0     -39.605   4.812  19.550  0.00  0.00     0.001 A 
HETATM   24  C   UNK     0     -40.733   4.037  19.826  0.00  0.00     0.014 A 
ENDBRANCH  13  19
BRANCH  17  25
HETATM   25  O   UNK     0     -46.683   0.817  22.887  0.00  0.00    -0.357 OA
HETATM   26  H   UNK     0     -46.264   1.222  23.662  0.00  0.00     0.217 HD
ENDBRANCH  17  25
BRANCH  18  27
HETATM   27  O   UNK     0     -47.039  -1.173  21.054  0.00  0.00    -0.356 OA
HETATM   28  H   UNK     0     -47.860  -0.651  21.046  0.00  0.00     0.218 HD
ENDBRANCH  18  27
ENDBRANCH   7   8
ENDBRANCH   5   7
BRANCH   6  29
HETATM   29  C   UNK     0     -49.223  -0.591  16.732  0.00  0.00     0.172 C 
HETATM   30  O   UNK     0     -50.062  -1.227  16.112  0.00  0.00    -0.648 OA
BRANCH  29  31
HETATM   31  O   UNK     0     -49.504   0.239  17.766  0.00  0.00    -0.774 OA
HETATM   32  H   UNK     0     -48.695   0.653  18.135  0.00  0.00     0.167 HD
ENDBRANCH  29  31
ENDBRANCH   6  29
BRANCH   3  33
HETATM   33  O   UNK     0     -43.879  -2.032  16.553  0.00  0.00    -0.388 OA
HETATM   34  H   UNK     0     -43.657  -1.577  15.724  0.00  0.00     0.210 HD
ENDBRANCH   3  33
BRANCH   4  35
HETATM   35  O   UNK     0     -47.890  -1.093  14.113  0.00  0.00    -0.390 OA
HETATM   36  H   UNK     0     -47.596  -1.692  13.405  0.00  0.00     0.210 HD
ENDBRANCH   4  35
BRANCH   2  37
HETATM   37  O   UNK     0     -45.677  -2.954  14.411  0.00  0.00    -0.390 OA
HETATM   38  H   UNK     0     -46.260  -3.673  14.706  0.00  0.00     0.210 HD
ENDBRANCH   2  37
TORSDOF 10
ENDMDL
MODEL 8
REMARK VINA RESULT:      -6.8      3.588      9.101
REMARK  10 active torsions:
REMARK  status: ('A' for Active; 'I' for Inactive)
REMARK    1  A    between atoms: O_2  and  C_15 
REMARK    2  A    between atoms: O_2  and  C_18 
REMARK    3  A    between atoms: O_3  and  C_12 
REMARK    4  A    between atoms: O_4  and  C_13 
REMARK    5  A    between atoms: O_5  and  C_14 
REMARK    6  A    between atoms: O_6  and  C_17 
REMARK    7  A    between atoms: O_9  and  C_20 
REMARK    8  A    between atoms: O_10  and  C_23 
REMARK    9  A    between atoms: C_16  and  C_17 
REMARK   10  A    between atoms: C_25  and  C_27 
ROOT
HETATM    1  O   UNK     0     -45.724   0.027  18.329  0.00  0.00    -0.340 OA
HETATM    2  C   UNK     0     -43.383  -0.057  19.994  0.00  0.00     0.183 C 
HETATM    3  C   UNK     0     -43.428  -0.708  18.611  0.00  0.00     0.205 C 
HETATM    4  C   UNK     0     -44.442   1.036  20.131  0.00  0.00     0.189 C 
HETATM    5  C   UNK     0     -44.857  -1.100  18.231  0.00  0.00     0.299 C 
HETATM    6  C   UNK     0     -45.801   0.536  19.656  0.00  0.00     0.253 C 
ENDROOT
BRANCH   5   7
HETATM    7  O   UNK     0     -44.839  -1.578  16.885  0.00  0.00    -0.315 OA
BRANCH   7   8
HETATM    8  C   UNK     0     -46.035  -1.970  16.361  0.00  0.00     0.110 A 
HETATM    9  C   UNK     0     -46.696  -3.068  16.912  0.00  0.00     0.078 A 
HETATM   10  C   UNK     0     -47.921  -3.477  16.383  0.00  0.00     0.096 A 
HETATM   11  O   UNK     0     -48.523  -4.563  16.966  0.00  0.00    -0.309 OA
HETATM   12  C   UNK     0     -48.479  -2.790  15.306  0.00  0.00     0.084 A 
HETATM   13  C   UNK     0     -49.745  -4.988  16.466  0.00  0.00     0.090 A 
HETATM   14  C   UNK     0     -50.379  -4.414  15.432  0.00  0.00     0.094 A 
HETATM   15  C   UNK     0     -49.770  -3.245  14.768  0.00  0.00     0.190 A 
HETATM   16  O   UNK     0     -50.316  -2.691  13.823  0.00  0.00    -0.287 OA
HETATM   17  C   UNK     0     -47.820  -1.691  14.752  0.00  0.00     0.118 A 
HETATM   18  C   UNK     0     -46.596  -1.284  15.283  0.00  0.00     0.134 A 
BRANCH  13  19
HETATM   19  C   UNK     0     -50.302  -6.165  17.164  0.00  0.00    -0.002 A 
HETATM   20  C   UNK     0     -49.472  -7.237  17.502  0.00  0.00     0.014 A 
HETATM   21  C   UNK     0     -49.998  -8.349  18.162  0.00  0.00     0.001 A 
HETATM   22  C   UNK     0     -51.354  -8.391  18.485  0.00  0.00     0.000 A 
HETATM   23  C   UNK     0     -52.185  -7.323  18.149  0.00  0.00     0.001 A 
HETATM   24  C   UNK     0     -51.659  -6.212  17.489  0.00  0.00     0.014 A 
ENDBRANCH  13  19
BRANCH  17  25
HETATM   25  O   UNK     0     -48.335  -0.995  13.699  0.00  0.00    -0.357 OA
HETATM   26  H   UNK     0     -48.276  -0.040  13.854  0.00  0.00     0.217 HD
ENDBRANCH  17  25
BRANCH  18  27
HETATM   27  O   UNK     0     -45.942  -0.211  14.749  0.00  0.00    -0.356 OA
HETATM   28  H   UNK     0     -45.999  -0.267  13.779  0.00  0.00     0.218 HD
ENDBRANCH  18  27
ENDBRANCH   7   8
ENDBRANCH   5   7
BRANCH   6  29
HETATM   29  C   UNK     0     -46.774   1.663  19.536  0.00  0.00     0.172 C 
HETATM   30  O   UNK     0     -47.043   2.457  20.426  0.00  0.00    -0.648 OA
BRANCH  29  31
HETATM   31  O   UNK     0     -47.326   1.688  18.298  0.00  0.00    -0.774 OA
HETATM   32  H   UNK     0     -48.129   1.127  18.243  0.00  0.00     0.167 HD
ENDBRANCH  29  31
ENDBRANCH   6  29
BRANCH   3  33
HETATM   33  O   UNK     0     -42.626  -1.889  18.617  0.00  0.00    -0.388 OA
HETATM   34  H   UNK     0     -41.714  -1.625  18.820  0.00  0.00     0.210 HD
ENDBRANCH   3  33
BRANCH   4  35
HETATM   35  O   UNK     0     -44.547   1.415  21.502  0.00  0.00    -0.390 OA
HETATM   36  H   UNK     0     -44.240   0.669  22.045  0.00  0.00     0.210 HD
ENDBRANCH   4  35
BRANCH   2  37
HETATM   37  O   UNK     0     -42.101   0.539  20.198  0.00  0.00    -0.390 OA
HETATM   38  H   UNK     0     -42.166   1.117  20.976  0.00  0.00     0.210 HD
ENDBRANCH   2  37
TORSDOF 10
ENDMDL
MODEL 9
REMARK VINA RESULT:      -6.8      2.460      4.226
REMARK  10 active torsions:
REMARK  status: ('A' for Active; 'I' for Inactive)
REMARK    1  A    between atoms: O_2  and  C_15 
REMARK    2  A    between atoms: O_2  and  C_18 
REMARK    3  A    between atoms: O_3  and  C_12 
REMARK    4  A    between atoms: O_4  and  C_13 
REMARK    5  A    between atoms: O_5  and  C_14 
REMARK    6  A    between atoms: O_6  and  C_17 
REMARK    7  A    between atoms: O_9  and  C_20 
REMARK    8  A    between atoms: O_10  and  C_23 
REMARK    9  A    between atoms: C_16  and  C_17 
REMARK   10  A    between atoms: C_25  and  C_27 
ROOT
HETATM    1  O   UNK     0     -49.083  -1.090  16.703  0.00  0.00    -0.340 OA
HETATM    2  C   UNK     0     -48.382  -1.881  14.031  0.00  0.00     0.183 C 
HETATM    3  C   UNK     0     -47.676  -2.446  15.264  0.00  0.00     0.205 C 
HETATM    4  C   UNK     0     -49.764  -1.331  14.382  0.00  0.00     0.189 C 
HETATM    5  C   UNK     0     -47.733  -1.462  16.433  0.00  0.00     0.299 C 
HETATM    6  C   UNK     0     -49.690  -0.422  15.603  0.00  0.00     0.253 C 
ENDROOT
BRANCH   5   7
HETATM    7  O   UNK     0     -47.173  -2.106  17.578  0.00  0.00    -0.315 OA
BRANCH   7   8
HETATM    8  C   UNK     0     -46.198  -1.424  18.246  0.00  0.00     0.110 A 
HETATM    9  C   UNK     0     -46.557  -0.396  19.117  0.00  0.00     0.078 A 
HETATM   10  C   UNK     0     -45.567   0.307  19.806  0.00  0.00     0.096 A 
HETATM   11  O   UNK     0     -45.981   1.307  20.648  0.00  0.00    -0.309 OA
HETATM   12  C   UNK     0     -44.225  -0.019  19.620  0.00  0.00     0.084 A 
HETATM   13  C   UNK     0     -45.020   2.018  21.351  0.00  0.00     0.090 A 
HETATM   14  C   UNK     0     -43.699   1.803  21.253  0.00  0.00     0.094 A 
HETATM   15  C   UNK     0     -43.202   0.740  20.357  0.00  0.00     0.190 A 
HETATM   16  O   UNK     0     -42.006   0.510  20.240  0.00  0.00    -0.287 OA
HETATM   17  C   UNK     0     -43.861  -1.048  18.748  0.00  0.00     0.118 A 
HETATM   18  C   UNK     0     -44.853  -1.749  18.062  0.00  0.00     0.134 A 
BRANCH  13  19
HETATM   19  C   UNK     0     -45.573   3.074  22.224  0.00  0.00    -0.002 A 
HETATM   20  C   UNK     0     -44.720   3.849  23.014  0.00  0.00     0.014 A 
HETATM   21  C   UNK     0     -45.243   4.846  23.838  0.00  0.00     0.001 A 
HETATM   22  C   UNK     0     -46.619   5.072  23.874  0.00  0.00     0.000 A 
HETATM   23  C   UNK     0     -47.473   4.300  23.086  0.00  0.00     0.001 A 
HETATM   24  C   UNK     0     -46.950   3.303  22.262  0.00  0.00     0.014 A 
ENDBRANCH  13  19
BRANCH  17  25
HETATM   25  O   UNK     0     -42.559  -1.394  18.542  0.00  0.00    -0.357 OA
HETATM   26  H   UNK     0     -42.492  -2.116  17.899  0.00  0.00     0.217 HD
ENDBRANCH  17  25
BRANCH  18  27
HETATM   27  O   UNK     0     -44.510  -2.756  17.207  0.00  0.00    -0.356 OA
HETATM   28  H   UNK     0     -44.897  -3.586  17.537  0.00  0.00     0.218 HD
ENDBRANCH  18  27
ENDBRANCH   7   8
ENDBRANCH   5   7
BRANCH   6  29
HETATM   29  C   UNK     0     -51.057  -0.096  16.111  0.00  0.00     0.172 C 
HETATM   30  O   UNK     0     -51.337   0.875  16.800  0.00  0.00    -0.648 OA
BRANCH  29  31
HETATM   31  O   UNK     0     -51.953  -1.029  15.708  0.00  0.00    -0.774 OA
HETATM   32  H   UNK     0     -51.566  -1.651  15.055  0.00  0.00     0.167 HD
ENDBRANCH  29  31
ENDBRANCH   6  29
BRANCH   3  33
HETATM   33  O   UNK     0     -46.304  -2.692  14.953  0.00  0.00    -0.388 OA
HETATM   34  H   UNK     0     -45.783  -2.504  15.751  0.00  0.00     0.210 HD
ENDBRANCH   3  33
BRANCH   4  35
HETATM   35  O   UNK     0     -50.261  -0.577  13.279  0.00  0.00    -0.390 OA
HETATM   36  H   UNK     0     -51.101  -0.976  12.994  0.00  0.00     0.210 HD
ENDBRANCH   4  35
BRANCH   2  37
HETATM   37  O   UNK     0     -48.551  -2.917  13.062  0.00  0.00    -0.390 OA
HETATM   38  H   UNK     0     -47.836  -3.562  13.193  0.00  0.00     0.210 HD
ENDBRANCH   2  37
TORSDOF 10
ENDMDL
MODEL 10
REMARK VINA RESULT:      -6.8      2.587      4.180
REMARK  10 active torsions:
REMARK  status: ('A' for Active; 'I' for Inactive)
REMARK    1  A    between atoms: O_2  and  C_15 
REMARK    2  A    between atoms: O_2  and  C_18 
REMARK    3  A    between atoms: O_3  and  C_12 
REMARK    4  A    between atoms: O_4  and  C_13 
REMARK    5  A    between atoms: O_5  and  C_14 
REMARK    6  A    between atoms: O_6  and  C_17 
REMARK    7  A    between atoms: O_9  and  C_20 
REMARK    8  A    between atoms: O_10  and  C_23 
REMARK    9  A    between atoms: C_16  and  C_17 
REMARK   10  A    between atoms: C_25  and  C_27 
ROOT
HETATM    1  O   UNK     0     -49.011  -3.074  15.614  0.00  0.00    -0.340 OA
HETATM    2  C   UNK     0     -51.488  -1.727  15.063  0.00  0.00     0.183 C 
HETATM    3  C   UNK     0     -50.132  -1.145  14.662  0.00  0.00     0.205 C 
HETATM    4  C   UNK     0     -51.409  -3.241  15.258  0.00  0.00     0.189 C 
HETATM    5  C   UNK     0     -49.020  -1.649  15.582  0.00  0.00     0.299 C 
HETATM    6  C   UNK     0     -50.221  -3.611  16.137  0.00  0.00     0.253 C 
ENDROOT
BRANCH   5   7
HETATM    7  O   UNK     0     -47.775  -1.171  15.071  0.00  0.00    -0.315 OA
BRANCH   7   8
HETATM    8  C   UNK     0     -46.774  -0.985  15.979  0.00  0.00     0.110 A 
HETATM    9  C   UNK     0     -46.976  -0.118  17.052  0.00  0.00     0.078 A 
HETATM   10  C   UNK     0     -45.958   0.079  17.987  0.00  0.00     0.096 A 
HETATM   11  O   UNK     0     -46.215   0.944  19.019  0.00  0.00    -0.309 OA
HETATM   12  C   UNK     0     -44.744  -0.590  17.844  0.00  0.00     0.084 A 
HETATM   13  C   UNK     0     -45.224   1.153  19.967  0.00  0.00     0.090 A 
HETATM   14  C   UNK     0     -44.015   0.573  19.937  0.00  0.00     0.094 A 
HETATM   15  C   UNK     0     -43.688  -0.363  18.842  0.00  0.00     0.190 A 
HETATM   16  O   UNK     0     -42.597  -0.915  18.779  0.00  0.00    -0.287 OA
HETATM   17  C   UNK     0     -44.538  -1.460  16.771  0.00  0.00     0.118 A 
HETATM   18  C   UNK     0     -45.557  -1.655  15.839  0.00  0.00     0.134 A 
BRANCH  13  19
HETATM   19  C   UNK     0     -45.604   2.105  21.031  0.00  0.00    -0.002 A 
HETATM   20  C   UNK     0     -46.884   2.665  21.048  0.00  0.00     0.014 A 
HETATM   21  C   UNK     0     -47.243   3.563  22.053  0.00  0.00     0.001 A 
HETATM   22  C   UNK     0     -46.324   3.903  23.046  0.00  0.00     0.000 A 
HETATM   23  C   UNK     0     -45.045   3.346  23.033  0.00  0.00     0.001 A 
HETATM   24  C   UNK     0     -44.686   2.448  22.027  0.00  0.00     0.014 A 
ENDBRANCH  13  19
BRANCH  17  25
HETATM   25  O   UNK     0     -43.364  -2.131  16.600  0.00  0.00    -0.357 OA
HETATM   26  H   UNK     0     -42.801  -1.682  15.951  0.00  0.00     0.217 HD
ENDBRANCH  17  25
BRANCH  18  27
HETATM   27  O   UNK     0     -45.367  -2.502  14.785  0.00  0.00    -0.356 OA
HETATM   28  H   UNK     0     -44.479  -2.345  14.420  0.00  0.00     0.218 HD
ENDBRANCH  18  27
ENDBRANCH   7   8
ENDBRANCH   5   7
BRANCH   6  29
HETATM   29  C   UNK     0     -49.979  -5.086  16.116  0.00  0.00     0.172 C 
HETATM   30  O   UNK     0     -49.077  -5.658  16.711  0.00  0.00    -0.648 OA
BRANCH  29  31
HETATM   31  O   UNK     0     -50.899  -5.711  15.341  0.00  0.00    -0.774 OA
HETATM   32  H   UNK     0     -51.724  -5.187  15.257  0.00  0.00     0.167 HD
ENDBRANCH  29  31
ENDBRANCH   6  29
BRANCH   3  33
HETATM   33  O   UNK     0     -50.181   0.279  14.758  0.00  0.00    -0.388 OA
HETATM   34  H   UNK     0     -50.817   0.506  15.456  0.00  0.00     0.210 HD
ENDBRANCH   3  33
BRANCH   4  35
HETATM   35  O   UNK     0     -52.605  -3.692  15.891  0.00  0.00    -0.390 OA
HETATM   36  H   UNK     0     -53.229  -3.965  15.196  0.00  0.00     0.210 HD
ENDBRANCH   4  35
BRANCH   2  37
HETATM   37  O   UNK     0     -52.443  -1.462  14.033  0.00  0.00    -0.390 OA
HETATM   38  H   UNK     0     -51.963  -1.420  13.190  0.00  0.00     0.210 HD
ENDBRANCH   2  37
TORSDOF 10
ENDMDL
