MODEL 1
REMARK VINA RESULT:      -7.2      0.000      0.000
REMARK  15 active torsions:
REMARK  status: ('A' for Active; 'I' for Inactive)
REMARK    1  A    between atoms: O_2  and  C_18 
REMARK    2  A    between atoms: O_2  and  C_22 
REMARK    3  A    between atoms: O_4  and  C_14 
REMARK    4  A    between atoms: O_5  and  C_21 
REMARK    5  A    between atoms: O_5  and  C_25 
REMARK    6  A    between atoms: O_6  and  C_15 
REMARK    7  A    between atoms: O_7  and  C_16 
REMARK    8  A    between atoms: O_8  and  C_17 
REMARK    9  A    between atoms: O_9  and  C_19 
REMARK   10  A    between atoms: O_10  and  C_20 
REMARK   11  A    between atoms: O_11  and  C_30 
REMARK   12  A    between atoms: O_12  and  C_32 
REMARK   13  A    between atoms: C_13  and  C_22 
REMARK   14  A    between atoms: C_25  and  C_26 
REMARK   15  A    between atoms: C_26  and  C_27 
ROOT
HETATM    1  O   UNK     0     -46.420  -0.928  18.148  0.00  0.00    -0.348 OA
HETATM    2  C   UNK     0     -46.823  -0.240  16.963  0.00  0.00     0.180 C 
HETATM    3  C   UNK     0     -46.320  -0.989  15.727  0.00  0.00     0.180 C 
HETATM    4  C   UNK     0     -44.804  -1.179  15.787  0.00  0.00     0.183 C 
HETATM    5  C   UNK     0     -44.371  -1.749  17.137  0.00  0.00     0.204 C 
HETATM    6  C   UNK     0     -45.003  -0.979  18.296  0.00  0.00     0.291 C 
ENDROOT
BRANCH   2   7
HETATM    7  C   UNK     0     -48.345  -0.141  16.983  0.00  0.00     0.205 C 
BRANCH   7   8
HETATM    8  O   UNK     0     -48.893  -1.452  17.022  0.00  0.00    -0.356 OA
BRANCH   8   9
HETATM    9  C   UNK     0     -50.250  -1.461  16.594  0.00  0.00     0.291 C 
HETATM   10  O   UNK     0     -50.699  -2.771  16.229  0.00  0.00    -0.351 OA
HETATM   11  C   UNK     0     -50.022  -3.328  15.098  0.00  0.00     0.152 C 
HETATM   12  C   UNK     0     -50.197  -2.441  13.858  0.00  0.00     0.178 C 
HETATM   13  C   UNK     0     -50.591  -4.729  14.884  0.00  0.00     0.042 C 
HETATM   14  C   UNK     0     -49.750  -1.012  14.168  0.00  0.00     0.183 C 
HETATM   15  C   UNK     0     -50.432  -0.486  15.432  0.00  0.00     0.204 C 
BRANCH  12  16
HETATM   16  O   UNK     0     -49.401  -2.932  12.783  0.00  0.00    -0.390 OA
HETATM   17  H   UNK     0     -49.363  -2.244  12.096  0.00  0.00     0.210 HD
ENDBRANCH  12  16
BRANCH  14  18
HETATM   18  O   UNK     0     -50.067  -0.171  13.061  0.00  0.00    -0.390 OA
HETATM   19  H   UNK     0     -50.955   0.194  13.214  0.00  0.00     0.210 HD
ENDBRANCH  14  18
BRANCH  15  20
HETATM   20  O   UNK     0     -51.834  -0.338  15.204  0.00  0.00    -0.388 OA
HETATM   21  H   UNK     0     -52.144  -1.138  14.747  0.00  0.00     0.210 HD
ENDBRANCH  15  20
ENDBRANCH   8   9
ENDBRANCH   7   8
ENDBRANCH   2   7
BRANCH   6  22
HETATM   22  O   UNK     0     -44.668  -1.654  19.508  0.00  0.00    -0.358 OA
BRANCH  22  23
HETATM   23  C   UNK     0     -43.721  -0.917  20.265  0.00  0.00     0.175 C 
BRANCH  23  24
HETATM   24  C   UNK     0     -44.158   0.540  20.358  0.00  0.00     0.065 C 
BRANCH  24  25
HETATM   25  C   UNK     0     -43.020   1.498  20.105  0.00  0.00    -0.053 A 
HETATM   26  C   UNK     0     -42.078   1.742  21.104  0.00  0.00     0.046 A 
HETATM   27  C   UNK     0     -41.025   2.626  20.869  0.00  0.00     0.099 A 
HETATM   28  C   UNK     0     -40.915   3.268  19.635  0.00  0.00     0.098 A 
HETATM   29  C   UNK     0     -41.857   3.024  18.637  0.00  0.00     0.040 A 
HETATM   30  C   UNK     0     -42.910   2.139  18.870  0.00  0.00     0.010 A 
BRANCH  27  31
HETATM   31  O   UNK     0     -40.110   2.855  21.852  0.00  0.00    -0.358 OA
HETATM   32  H   UNK     0     -40.021   3.814  21.985  0.00  0.00     0.217 HD
ENDBRANCH  27  31
BRANCH  28  33
HETATM   33  O   UNK     0     -39.891   4.134  19.394  0.00  0.00    -0.358 OA
HETATM   34  H   UNK     0     -39.255   3.712  18.791  0.00  0.00     0.217 HD
ENDBRANCH  28  33
ENDBRANCH  24  25
ENDBRANCH  23  24
ENDBRANCH  22  23
ENDBRANCH   6  22
BRANCH   3  35
HETATM   35  O   UNK     0     -46.657  -0.249  14.557  0.00  0.00    -0.390 OA
HETATM   36  H   UNK     0     -46.110   0.555  14.543  0.00  0.00     0.210 HD
ENDBRANCH   3  35
BRANCH   5  37
HETATM   37  O   UNK     0     -42.952  -1.655  17.259  0.00  0.00    -0.388 OA
HETATM   38  H   UNK     0     -42.637  -2.440  17.740  0.00  0.00     0.210 HD
ENDBRANCH   5  37
BRANCH   4  39
HETATM   39  O   UNK     0     -44.430  -2.083  14.746  0.00  0.00    -0.390 OA
HETATM   40  H   UNK     0     -43.591  -2.506  14.999  0.00  0.00     0.210 HD
ENDBRANCH   4  39
TORSDOF 15
ENDMDL
MODEL 2
REMARK VINA RESULT:      -6.9      5.301      8.552
REMARK  15 active torsions:
REMARK  status: ('A' for Active; 'I' for Inactive)
REMARK    1  A    between atoms: O_2  and  C_18 
REMARK    2  A    between atoms: O_2  and  C_22 
REMARK    3  A    between atoms: O_4  and  C_14 
REMARK    4  A    between atoms: O_5  and  C_21 
REMARK    5  A    between atoms: O_5  and  C_25 
REMARK    6  A    between atoms: O_6  and  C_15 
REMARK    7  A    between atoms: O_7  and  C_16 
REMARK    8  A    between atoms: O_8  and  C_17 
REMARK    9  A    between atoms: O_9  and  C_19 
REMARK   10  A    between atoms: O_10  and  C_20 
REMARK   11  A    between atoms: O_11  and  C_30 
REMARK   12  A    between atoms: O_12  and  C_32 
REMARK   13  A    between atoms: C_13  and  C_22 
REMARK   14  A    between atoms: C_25  and  C_26 
REMARK   15  A    between atoms: C_26  and  C_27 
ROOT
HETATM    1  O   UNK     0     -48.630  -5.467  18.590  0.00  0.00    -0.348 OA
HETATM    2  C   UNK     0     -49.011  -5.438  17.214  0.00  0.00     0.180 C 
HETATM    3  C   UNK     0     -50.488  -5.815  17.074  0.00  0.00     0.180 C 
HETATM    4  C   UNK     0     -50.765  -7.176  17.712  0.00  0.00     0.183 C 
HETATM    5  C   UNK     0     -50.187  -7.251  19.125  0.00  0.00     0.204 C 
HETATM    6  C   UNK     0     -48.737  -6.770  19.160  0.00  0.00     0.291 C 
ENDROOT
BRANCH   2   7
HETATM    7  C   UNK     0     -48.734  -4.033  16.688  0.00  0.00     0.205 C 
BRANCH   7   8
HETATM    8  O   UNK     0     -47.743  -3.422  17.503  0.00  0.00    -0.356 OA
BRANCH   8   9
HETATM    9  C   UNK     0     -46.505  -3.300  16.812  0.00  0.00     0.291 C 
HETATM   10  O   UNK     0     -45.477  -2.732  17.630  0.00  0.00    -0.351 OA
HETATM   11  C   UNK     0     -45.730  -1.382  18.037  0.00  0.00     0.152 C 
HETATM   12  C   UNK     0     -45.886  -0.459  16.821  0.00  0.00     0.178 C 
HETATM   13  C   UNK     0     -44.565  -0.961  18.930  0.00  0.00     0.042 C 
HETATM   14  C   UNK     0     -46.963  -1.005  15.883  0.00  0.00     0.183 C 
HETATM   15  C   UNK     0     -46.701  -2.473  15.543  0.00  0.00     0.204 C 
BRANCH  12  16
HETATM   16  O   UNK     0     -46.279   0.845  17.238  0.00  0.00    -0.390 OA
HETATM   17  H   UNK     0     -46.571   0.790  18.164  0.00  0.00     0.210 HD
ENDBRANCH  12  16
BRANCH  14  18
HETATM   18  O   UNK     0     -46.983  -0.227  14.688  0.00  0.00    -0.390 OA
HETATM   19  H   UNK     0     -46.559  -0.753  13.988  0.00  0.00     0.210 HD
ENDBRANCH  14  18
BRANCH  15  20
HETATM   20  O   UNK     0     -45.511  -2.588  14.760  0.00  0.00    -0.388 OA
HETATM   21  H   UNK     0     -45.492  -1.837  14.143  0.00  0.00     0.210 HD
ENDBRANCH  15  20
ENDBRANCH   8   9
ENDBRANCH   7   8
ENDBRANCH   2   7
BRANCH   6  22
HETATM   22  O   UNK     0     -48.318  -6.734  20.525  0.00  0.00    -0.358 OA
BRANCH  22  23
HETATM   23  C   UNK     0     -47.182  -7.557  20.737  0.00  0.00     0.175 C 
BRANCH  23  24
HETATM   24  C   UNK     0     -46.702  -8.124  19.405  0.00  0.00     0.065 C 
BRANCH  24  25
HETATM   25  C   UNK     0     -45.331  -8.747  19.507  0.00  0.00    -0.053 A 
HETATM   26  C   UNK     0     -44.665  -9.161  18.354  0.00  0.00     0.046 A 
HETATM   27  C   UNK     0     -43.397  -9.735  18.448  0.00  0.00     0.099 A 
HETATM   28  C   UNK     0     -42.796  -9.896  19.697  0.00  0.00     0.098 A 
HETATM   29  C   UNK     0     -43.462  -9.483  20.850  0.00  0.00     0.040 A 
HETATM   30  C   UNK     0     -44.730  -8.908  20.756  0.00  0.00     0.010 A 
BRANCH  27  31
HETATM   31  O   UNK     0     -42.756 -10.132  17.314  0.00  0.00    -0.358 OA
HETATM   32  H   UNK     0     -41.795 -10.097  17.465  0.00  0.00     0.217 HD
ENDBRANCH  27  31
BRANCH  28  33
HETATM   33  O   UNK     0     -41.558 -10.456  19.802  0.00  0.00    -0.358 OA
HETATM   34  H   UNK     0     -41.546 -11.057  20.566  0.00  0.00     0.217 HD
ENDBRANCH  28  33
ENDBRANCH  24  25
ENDBRANCH  23  24
ENDBRANCH  22  23
ENDBRANCH   6  22
BRANCH   3  35
HETATM   35  O   UNK     0     -50.833  -5.863  15.692  0.00  0.00    -0.390 OA
HETATM   36  H   UNK     0     -50.030  -5.679  15.175  0.00  0.00     0.210 HD
ENDBRANCH   3  35
BRANCH   5  37
HETATM   37  O   UNK     0     -50.219  -8.604  19.579  0.00  0.00    -0.388 OA
HETATM   38  H   UNK     0     -49.304  -8.888  19.748  0.00  0.00     0.210 HD
ENDBRANCH   5  37
BRANCH   4  39
HETATM   39  O   UNK     0     -52.181  -7.359  17.767  0.00  0.00    -0.390 OA
HETATM   40  H   UNK     0     -52.575  -6.557  18.150  0.00  0.00     0.210 HD
ENDBRANCH   4  39
TORSDOF 15
ENDMDL
MODEL 3
REMARK VINA RESULT:      -6.9      2.680      5.006
REMARK  15 active torsions:
REMARK  status: ('A' for Active; 'I' for Inactive)
REMARK    1  A    between atoms: O_2  and  C_18 
REMARK    2  A    between atoms: O_2  and  C_22 
REMARK    3  A    between atoms: O_4  and  C_14 
REMARK    4  A    between atoms: O_5  and  C_21 
REMARK    5  A    between atoms: O_5  and  C_25 
REMARK    6  A    between atoms: O_6  and  C_15 
REMARK    7  A    between atoms: O_7  and  C_16 
REMARK    8  A    between atoms: O_8  and  C_17 
REMARK    9  A    between atoms: O_9  and  C_19 
REMARK   10  A    between atoms: O_10  and  C_20 
REMARK   11  A    between atoms: O_11  and  C_30 
REMARK   12  A    between atoms: O_12  and  C_32 
REMARK   13  A    between atoms: C_13  and  C_22 
REMARK   14  A    between atoms: C_25  and  C_26 
REMARK   15  A    between atoms: C_26  and  C_27 
ROOT
HETATM    1  O   UNK     0     -47.614  -0.188  19.524  0.00  0.00    -0.348 OA
HETATM    2  C   UNK     0     -49.042  -0.208  19.467  0.00  0.00     0.180 C 
HETATM    3  C   UNK     0     -49.566   1.162  19.029  0.00  0.00     0.180 C 
HETATM    4  C   UNK     0     -49.049   2.263  19.955  0.00  0.00     0.183 C 
HETATM    5  C   UNK     0     -47.537   2.157  20.149  0.00  0.00     0.204 C 
HETATM    6  C   UNK     0     -47.119   0.729  20.497  0.00  0.00     0.291 C 
ENDROOT
BRANCH   2   7
HETATM    7  C   UNK     0     -49.449  -1.307  18.492  0.00  0.00     0.205 C 
BRANCH   7   8
HETATM    8  O   UNK     0     -49.368  -0.803  17.166  0.00  0.00    -0.356 OA
BRANCH   8   9
HETATM    9  C   UNK     0     -50.574  -1.032  16.447  0.00  0.00     0.291 C 
HETATM   10  O   UNK     0     -50.770  -2.416  16.136  0.00  0.00    -0.351 OA
HETATM   11  C   UNK     0     -49.785  -2.963  15.254  0.00  0.00     0.152 C 
HETATM   12  C   UNK     0     -49.762  -2.210  13.917  0.00  0.00     0.178 C 
HETATM   13  C   UNK     0     -50.123  -4.441  15.072  0.00  0.00     0.042 C 
HETATM   14  C   UNK     0     -49.568  -0.713  14.161  0.00  0.00     0.183 C 
HETATM   15  C   UNK     0     -50.586  -0.187  15.175  0.00  0.00     0.204 C 
BRANCH  12  16
HETATM   16  O   UNK     0     -48.683  -2.671  13.109  0.00  0.00    -0.390 OA
HETATM   17  H   UNK     0     -49.023  -3.363  12.517  0.00  0.00     0.210 HD
ENDBRANCH  12  16
BRANCH  14  18
HETATM   18  O   UNK     0     -49.707  -0.014  12.926  0.00  0.00    -0.390 OA
HETATM   19  H   UNK     0     -49.895   0.917  13.136  0.00  0.00     0.210 HD
ENDBRANCH  14  18
BRANCH  15  20
HETATM   20  O   UNK     0     -51.901  -0.250  14.622  0.00  0.00    -0.388 OA
HETATM   21  H   UNK     0     -52.241   0.659  14.566  0.00  0.00     0.210 HD
ENDBRANCH  15  20
ENDBRANCH   8   9
ENDBRANCH   7   8
ENDBRANCH   2   7
BRANCH   6  22
HETATM   22  O   UNK     0     -45.692   0.682  20.520  0.00  0.00    -0.358 OA
BRANCH  22  23
HETATM   23  C   UNK     0     -45.140   1.136  19.294  0.00  0.00     0.175 C 
BRANCH  23  24
HETATM   24  C   UNK     0     -44.158   0.101  18.757  0.00  0.00     0.065 C 
BRANCH  24  25
HETATM   25  C   UNK     0     -44.745  -0.718  17.634  0.00  0.00    -0.053 A 
HETATM   26  C   UNK     0     -45.548  -1.822  17.920  0.00  0.00     0.046 A 
HETATM   27  C   UNK     0     -46.092  -2.577  16.881  0.00  0.00     0.099 A 
HETATM   28  C   UNK     0     -45.831  -2.230  15.556  0.00  0.00     0.098 A 
HETATM   29  C   UNK     0     -45.028  -1.126  15.269  0.00  0.00     0.040 A 
HETATM   30  C   UNK     0     -44.485  -0.370  16.308  0.00  0.00     0.010 A 
BRANCH  27  31
HETATM   31  O   UNK     0     -46.876  -3.652  17.173  0.00  0.00    -0.358 OA
HETATM   32  H   UNK     0     -46.666  -3.963  18.071  0.00  0.00     0.217 HD
ENDBRANCH  27  31
BRANCH  28  33
HETATM   33  O   UNK     0     -46.356  -2.960  14.532  0.00  0.00    -0.358 OA
HETATM   34  H   UNK     0     -47.326  -2.962  14.609  0.00  0.00     0.217 HD
ENDBRANCH  28  33
ENDBRANCH  24  25
ENDBRANCH  23  24
ENDBRANCH  22  23
ENDBRANCH   6  22
BRANCH   3  35
HETATM   35  O   UNK     0     -50.991   1.152  19.058  0.00  0.00    -0.390 OA
HETATM   36  H   UNK     0     -51.281   0.251  19.285  0.00  0.00     0.210 HD
ENDBRANCH   3  35
BRANCH   5  37
HETATM   37  O   UNK     0     -47.135   3.013  21.218  0.00  0.00    -0.388 OA
HETATM   38  H   UNK     0     -47.873   3.075  21.849  0.00  0.00     0.210 HD
ENDBRANCH   5  37
BRANCH   4  39
HETATM   39  O   UNK     0     -49.366   3.523  19.362  0.00  0.00    -0.390 OA
HETATM   40  H   UNK     0     -49.961   4.001  19.966  0.00  0.00     0.210 HD
ENDBRANCH   4  39
TORSDOF 15
ENDMDL
MODEL 4
REMARK VINA RESULT:      -6.7      3.043      8.505
REMARK  15 active torsions:
REMARK  status: ('A' for Active; 'I' for Inactive)
REMARK    1  A    between atoms: O_2  and  C_18 
REMARK    2  A    between atoms: O_2  and  C_22 
REMARK    3  A    between atoms: O_4  and  C_14 
REMARK    4  A    between atoms: O_5  and  C_21 
REMARK    5  A    between atoms: O_5  and  C_25 
REMARK    6  A    between atoms: O_6  and  C_15 
REMARK    7  A    between atoms: O_7  and  C_16 
REMARK    8  A    between atoms: O_8  and  C_17 
REMARK    9  A    between atoms: O_9  and  C_19 
REMARK   10  A    between atoms: O_10  and  C_20 
REMARK   11  A    between atoms: O_11  and  C_30 
REMARK   12  A    between atoms: O_12  and  C_32 
REMARK   13  A    between atoms: C_13  and  C_22 
REMARK   14  A    between atoms: C_25  and  C_26 
REMARK   15  A    between atoms: C_26  and  C_27 
ROOT
HETATM    1  O   UNK     0     -50.380  -4.849  16.797  0.00  0.00    -0.348 OA
HETATM    2  C   UNK     0     -49.161  -4.874  17.541  0.00  0.00     0.180 C 
HETATM    3  C   UNK     0     -48.714  -6.321  17.762  0.00  0.00     0.180 C 
HETATM    4  C   UNK     0     -49.815  -7.131  18.447  0.00  0.00     0.183 C 
HETATM    5  C   UNK     0     -51.158  -6.946  17.741  0.00  0.00     0.204 C 
HETATM    6  C   UNK     0     -51.459  -5.469  17.494  0.00  0.00     0.291 C 
ENDROOT
BRANCH   2   7
HETATM    7  C   UNK     0     -48.125  -4.076  16.755  0.00  0.00     0.205 C 
BRANCH   7   8
HETATM    8  O   UNK     0     -47.241  -3.441  17.667  0.00  0.00    -0.356 OA
BRANCH   8   9
HETATM    9  C   UNK     0     -45.998  -3.123  17.050  0.00  0.00     0.291 C 
HETATM   10  O   UNK     0     -45.136  -2.374  17.913  0.00  0.00    -0.351 OA
HETATM   11  C   UNK     0     -45.638  -1.080  18.265  0.00  0.00     0.152 C 
HETATM   12  C   UNK     0     -45.868  -0.219  17.015  0.00  0.00     0.178 C 
HETATM   13  C   UNK     0     -44.622  -0.451  19.215  0.00  0.00     0.042 C 
HETATM   14  C   UNK     0     -46.774  -0.956  16.029  0.00  0.00     0.183 C 
HETATM   15  C   UNK     0     -46.248  -2.364  15.748  0.00  0.00     0.204 C 
BRANCH  12  16
HETATM   16  O   UNK     0     -46.501   1.007  17.370  0.00  0.00    -0.390 OA
HETATM   17  H   UNK     0     -45.817   1.618  17.693  0.00  0.00     0.210 HD
ENDBRANCH  12  16
BRANCH  14  18
HETATM   18  O   UNK     0     -46.847  -0.213  14.814  0.00  0.00    -0.390 OA
HETATM   19  H   UNK     0     -45.940   0.043  14.572  0.00  0.00     0.210 HD
ENDBRANCH  14  18
BRANCH  15  20
HETATM   20  O   UNK     0     -45.007  -2.289  15.044  0.00  0.00    -0.388 OA
HETATM   21  H   UNK     0     -45.211  -2.190  14.098  0.00  0.00     0.210 HD
ENDBRANCH  15  20
ENDBRANCH   8   9
ENDBRANCH   7   8
ENDBRANCH   2   7
BRANCH   6  22
HETATM   22  O   UNK     0     -52.649  -5.387  16.710  0.00  0.00    -0.358 OA
BRANCH  22  23
HETATM   23  C   UNK     0     -52.387  -4.835  15.430  0.00  0.00     0.175 C 
BRANCH  23  24
HETATM   24  C   UNK     0     -52.919  -3.407  15.367  0.00  0.00     0.065 C 
BRANCH  24  25
HETATM   25  C   UNK     0     -51.895  -2.436  14.835  0.00  0.00    -0.053 A 
HETATM   26  C   UNK     0     -50.703  -2.908  14.286  0.00  0.00     0.046 A 
HETATM   27  C   UNK     0     -49.758  -2.009  13.792  0.00  0.00     0.099 A 
HETATM   28  C   UNK     0     -50.003  -0.638  13.850  0.00  0.00     0.098 A 
HETATM   29  C   UNK     0     -51.194  -0.165  14.399  0.00  0.00     0.040 A 
HETATM   30  C   UNK     0     -52.141  -1.063  14.892  0.00  0.00     0.010 A 
BRANCH  27  31
HETATM   31  O   UNK     0     -48.599  -2.484  13.256  0.00  0.00    -0.358 OA
HETATM   32  H   UNK     0     -47.955  -2.629  13.971  0.00  0.00     0.217 HD
ENDBRANCH  27  31
BRANCH  28  33
HETATM   33  O   UNK     0     -49.086   0.250  13.371  0.00  0.00    -0.358 OA
HETATM   34  H   UNK     0     -49.323   0.488  12.458  0.00  0.00     0.217 HD
ENDBRANCH  28  33
ENDBRANCH  24  25
ENDBRANCH  23  24
ENDBRANCH  22  23
ENDBRANCH   6  22
BRANCH   3  35
HETATM   35  O   UNK     0     -47.544  -6.334  18.575  0.00  0.00    -0.390 OA
HETATM   36  H   UNK     0     -46.772  -6.233  17.992  0.00  0.00     0.210 HD
ENDBRANCH   3  35
BRANCH   5  37
HETATM   37  O   UNK     0     -52.199  -7.485  18.555  0.00  0.00    -0.388 OA
HETATM   38  H   UNK     0     -52.189  -7.016  19.407  0.00  0.00     0.210 HD
ENDBRANCH   5  37
BRANCH   4  39
HETATM   39  O   UNK     0     -49.441  -8.509  18.406  0.00  0.00    -0.390 OA
HETATM   40  H   UNK     0     -48.760  -8.617  17.719  0.00  0.00     0.210 HD
ENDBRANCH   4  39
TORSDOF 15
ENDMDL
MODEL 5
REMARK VINA RESULT:      -6.7      3.071      5.417
REMARK  15 active torsions:
REMARK  status: ('A' for Active; 'I' for Inactive)
REMARK    1  A    between atoms: O_2  and  C_18 
REMARK    2  A    between atoms: O_2  and  C_22 
REMARK    3  A    between atoms: O_4  and  C_14 
REMARK    4  A    between atoms: O_5  and  C_21 
REMARK    5  A    between atoms: O_5  and  C_25 
REMARK    6  A    between atoms: O_6  and  C_15 
REMARK    7  A    between atoms: O_7  and  C_16 
REMARK    8  A    between atoms: O_8  and  C_17 
REMARK    9  A    between atoms: O_9  and  C_19 
REMARK   10  A    between atoms: O_10  and  C_20 
REMARK   11  A    between atoms: O_11  and  C_30 
REMARK   12  A    between atoms: O_12  and  C_32 
REMARK   13  A    between atoms: C_13  and  C_22 
REMARK   14  A    between atoms: C_25  and  C_26 
REMARK   15  A    between atoms: C_26  and  C_27 
ROOT
HETATM    1  O   UNK     0     -49.014   0.340  19.452  0.00  0.00    -0.348 OA
HETATM    2  C   UNK     0     -50.341  -0.181  19.540  0.00  0.00     0.180 C 
HETATM    3  C   UNK     0     -51.358   0.947  19.356  0.00  0.00     0.180 C 
HETATM    4  C   UNK     0     -51.117   2.067  20.369  0.00  0.00     0.183 C 
HETATM    5  C   UNK     0     -49.648   2.488  20.389  0.00  0.00     0.204 C 
HETATM    6  C   UNK     0     -48.723   1.275  20.488  0.00  0.00     0.291 C 
ENDROOT
BRANCH   2   7
HETATM    7  C   UNK     0     -50.487  -1.255  18.466  0.00  0.00     0.205 C 
BRANCH   7   8
HETATM    8  O   UNK     0     -50.288  -0.663  17.191  0.00  0.00    -0.356 OA
BRANCH   8   9
HETATM    9  C   UNK     0     -51.329  -1.015  16.286  0.00  0.00     0.291 C 
HETATM   10  O   UNK     0     -51.298  -2.401  15.930  0.00  0.00    -0.351 OA
HETATM   11  C   UNK     0     -50.125  -2.795  15.210  0.00  0.00     0.152 C 
HETATM   12  C   UNK     0     -49.988  -2.002  13.902  0.00  0.00     0.178 C 
HETATM   13  C   UNK     0     -50.241  -4.297  14.958  0.00  0.00     0.042 C 
HETATM   14  C   UNK     0     -50.025  -0.501  14.193  0.00  0.00     0.183 C 
HETATM   15  C   UNK     0     -51.247  -0.137  15.038  0.00  0.00     0.204 C 
BRANCH  12  16
HETATM   16  O   UNK     0     -48.746  -2.301  13.271  0.00  0.00    -0.390 OA
HETATM   17  H   UNK     0     -48.520  -3.225  13.474  0.00  0.00     0.210 HD
ENDBRANCH  12  16
BRANCH  14  18
HETATM   18  O   UNK     0     -50.056   0.215  12.961  0.00  0.00    -0.390 OA
HETATM   19  H   UNK     0     -50.024  -0.439  12.241  0.00  0.00     0.210 HD
ENDBRANCH  14  18
BRANCH  15  20
HETATM   20  O   UNK     0     -52.442  -0.343  14.282  0.00  0.00    -0.388 OA
HETATM   21  H   UNK     0     -52.414  -1.249  13.931  0.00  0.00     0.210 HD
ENDBRANCH  15  20
ENDBRANCH   8   9
ENDBRANCH   7   8
ENDBRANCH   2   7
BRANCH   6  22
HETATM   22  O   UNK     0     -47.378   1.737  20.358  0.00  0.00    -0.358 OA
BRANCH  22  23
HETATM   23  C   UNK     0     -46.857   1.451  19.069  0.00  0.00     0.175 C 
BRANCH  23  24
HETATM   24  C   UNK     0     -45.641   0.541  19.197  0.00  0.00     0.065 C 
BRANCH  24  25
HETATM   25  C   UNK     0     -45.313  -0.164  17.903  0.00  0.00    -0.053 A 
HETATM   26  C   UNK     0     -46.145  -0.012  16.795  0.00  0.00     0.046 A 
HETATM   27  C   UNK     0     -45.841  -0.662  15.599  0.00  0.00     0.099 A 
HETATM   28  C   UNK     0     -44.704  -1.466  15.513  0.00  0.00     0.098 A 
HETATM   29  C   UNK     0     -43.872  -1.619  16.621  0.00  0.00     0.040 A 
HETATM   30  C   UNK     0     -44.175  -0.968  17.817  0.00  0.00     0.010 A 
BRANCH  27  31
HETATM   31  O   UNK     0     -46.660  -0.504  14.523  0.00  0.00    -0.358 OA
HETATM   32  H   UNK     0     -47.205   0.291  14.654  0.00  0.00     0.217 HD
ENDBRANCH  27  31
BRANCH  28  33
HETATM   33  O   UNK     0     -44.396  -2.107  14.349  0.00  0.00    -0.358 OA
HETATM   34  H   UNK     0     -43.822  -1.532  13.814  0.00  0.00     0.217 HD
ENDBRANCH  28  33
ENDBRANCH  24  25
ENDBRANCH  23  24
ENDBRANCH  22  23
ENDBRANCH   6  22
BRANCH   3  35
HETATM   35  O   UNK     0     -52.674   0.429  19.529  0.00  0.00    -0.390 OA
HETATM   36  H   UNK     0     -52.979   0.091  18.669  0.00  0.00     0.210 HD
ENDBRANCH   3  35
BRANCH   5  37
HETATM   37  O   UNK     0     -49.411   3.324  21.521  0.00  0.00    -0.388 OA
HETATM   38  H   UNK     0     -50.248   3.762  21.754  0.00  0.00     0.210 HD
ENDBRANCH   5  37
BRANCH   4  39
HETATM   39  O   UNK     0     -51.927   3.183  19.995  0.00  0.00    -0.390 OA
HETATM   40  H   UNK     0     -51.681   3.937  20.557  0.00  0.00     0.210 HD
ENDBRANCH   4  39
TORSDOF 15
ENDMDL
MODEL 6
REMARK VINA RESULT:      -6.6      3.073      8.030
REMARK  15 active torsions:
REMARK  status: ('A' for Active; 'I' for Inactive)
REMARK    1  A    between atoms: O_2  and  C_18 
REMARK    2  A    between atoms: O_2  and  C_22 
REMARK    3  A    between atoms: O_4  and  C_14 
REMARK    4  A    between atoms: O_5  and  C_21 
REMARK    5  A    between atoms: O_5  and  C_25 
REMARK    6  A    between atoms: O_6  and  C_15 
REMARK    7  A    between atoms: O_7  and  C_16 
REMARK    8  A    between atoms: O_8  and  C_17 
REMARK    9  A    between atoms: O_9  and  C_19 
REMARK   10  A    between atoms: O_10  and  C_20 
REMARK   11  A    between atoms: O_11  and  C_30 
REMARK   12  A    between atoms: O_12  and  C_32 
REMARK   13  A    between atoms: C_13  and  C_22 
REMARK   14  A    between atoms: C_25  and  C_26 
REMARK   15  A    between atoms: C_26  and  C_27 
ROOT
HETATM    1  O   UNK     0     -49.320   1.319  18.653  0.00  0.00    -0.348 OA
HETATM    2  C   UNK     0     -48.159   2.026  19.091  0.00  0.00     0.180 C 
HETATM    3  C   UNK     0     -48.287   2.371  20.576  0.00  0.00     0.180 C 
HETATM    4  C   UNK     0     -49.569   3.161  20.842  0.00  0.00     0.183 C 
HETATM    5  C   UNK     0     -50.780   2.480  20.207  0.00  0.00     0.204 C 
HETATM    6  C   UNK     0     -50.508   2.102  18.752  0.00  0.00     0.291 C 
ENDROOT
BRANCH   2   7
HETATM    7  C   UNK     0     -46.949   1.138  18.819  0.00  0.00     0.205 C 
BRANCH   7   8
HETATM    8  O   UNK     0     -47.251   0.262  17.743  0.00  0.00    -0.356 OA
BRANCH   8   9
HETATM    9  C   UNK     0     -47.163  -1.102  18.141  0.00  0.00     0.291 C 
HETATM   10  O   UNK     0     -45.956  -1.385  18.856  0.00  0.00    -0.351 OA
HETATM   11  C   UNK     0     -44.763  -1.219  18.082  0.00  0.00     0.152 C 
HETATM   12  C   UNK     0     -44.772  -2.137  16.852  0.00  0.00     0.178 C 
HETATM   13  C   UNK     0     -43.586  -1.515  19.009  0.00  0.00     0.042 C 
HETATM   14  C   UNK     0     -46.043  -1.905  16.034  0.00  0.00     0.183 C 
HETATM   15  C   UNK     0     -47.288  -2.006  16.916  0.00  0.00     0.204 C 
BRANCH  12  16
HETATM   16  O   UNK     0     -43.651  -1.856  16.019  0.00  0.00    -0.390 OA
HETATM   17  H   UNK     0     -42.844  -2.082  16.512  0.00  0.00     0.210 HD
ENDBRANCH  12  16
BRANCH  14  18
HETATM   18  O   UNK     0     -46.110  -2.872  14.988  0.00  0.00    -0.390 OA
HETATM   19  H   UNK     0     -47.025  -2.884  14.658  0.00  0.00     0.210 HD
ENDBRANCH  14  18
BRANCH  15  20
HETATM   20  O   UNK     0     -47.449  -3.348  17.381  0.00  0.00    -0.388 OA
HETATM   21  H   UNK     0     -48.305  -3.672  17.054  0.00  0.00     0.210 HD
ENDBRANCH  15  20
ENDBRANCH   8   9
ENDBRANCH   7   8
ENDBRANCH   2   7
BRANCH   6  22
HETATM   22  O   UNK     0     -51.623   1.349  18.276  0.00  0.00    -0.358 OA
BRANCH  22  23
HETATM   23  C   UNK     0     -51.562   1.168  16.870  0.00  0.00     0.175 C 
BRANCH  23  24
HETATM   24  C   UNK     0     -51.982  -0.253  16.516  0.00  0.00     0.065 C 
BRANCH  24  25
HETATM   25  C   UNK     0     -51.005  -0.925  15.583  0.00  0.00    -0.053 A 
HETATM   26  C   UNK     0     -50.127  -0.156  14.820  0.00  0.00     0.046 A 
HETATM   27  C   UNK     0     -49.222  -0.778  13.959  0.00  0.00     0.099 A 
HETATM   28  C   UNK     0     -49.197  -2.169  13.860  0.00  0.00     0.098 A 
HETATM   29  C   UNK     0     -50.075  -2.938  14.623  0.00  0.00     0.040 A 
HETATM   30  C   UNK     0     -50.979  -2.317  15.485  0.00  0.00     0.010 A 
BRANCH  27  31
HETATM   31  O   UNK     0     -48.368  -0.015  13.221  0.00  0.00    -0.358 OA
HETATM   32  H   UNK     0     -47.801  -0.600  12.689  0.00  0.00     0.217 HD
ENDBRANCH  27  31
BRANCH  28  33
HETATM   33  O   UNK     0     -48.317  -2.787  13.023  0.00  0.00    -0.358 OA
HETATM   34  H   UNK     0     -48.704  -2.826  12.131  0.00  0.00     0.217 HD
ENDBRANCH  28  33
ENDBRANCH  24  25
ENDBRANCH  23  24
ENDBRANCH  22  23
ENDBRANCH   6  22
BRANCH   3  35
HETATM   35  O   UNK     0     -47.162   3.147  20.979  0.00  0.00    -0.390 OA
HETATM   36  H   UNK     0     -47.300   4.059  20.670  0.00  0.00     0.210 HD
ENDBRANCH   3  35
BRANCH   5  37
HETATM   37  O   UNK     0     -51.895   3.371  20.237  0.00  0.00    -0.388 OA
HETATM   38  H   UNK     0     -52.438   3.201  19.447  0.00  0.00     0.210 HD
ENDBRANCH   5  37
BRANCH   4  39
HETATM   39  O   UNK     0     -49.754   3.240  22.257  0.00  0.00    -0.390 OA
HETATM   40  H   UNK     0     -49.108   3.876  22.612  0.00  0.00     0.210 HD
ENDBRANCH   4  39
TORSDOF 15
ENDMDL
MODEL 7
REMARK VINA RESULT:      -6.6      2.025      3.340
REMARK  15 active torsions:
REMARK  status: ('A' for Active; 'I' for Inactive)
REMARK    1  A    between atoms: O_2  and  C_18 
REMARK    2  A    between atoms: O_2  and  C_22 
REMARK    3  A    between atoms: O_4  and  C_14 
REMARK    4  A    between atoms: O_5  and  C_21 
REMARK    5  A    between atoms: O_5  and  C_25 
REMARK    6  A    between atoms: O_6  and  C_15 
REMARK    7  A    between atoms: O_7  and  C_16 
REMARK    8  A    between atoms: O_8  and  C_17 
REMARK    9  A    between atoms: O_9  and  C_19 
REMARK   10  A    between atoms: O_10  and  C_20 
REMARK   11  A    between atoms: O_11  and  C_30 
REMARK   12  A    between atoms: O_12  and  C_32 
REMARK   13  A    between atoms: C_13  and  C_22 
REMARK   14  A    between atoms: C_25  and  C_26 
REMARK   15  A    between atoms: C_26  and  C_27 
ROOT
HETATM    1  O   UNK     0     -47.446  -0.834  19.997  0.00  0.00    -0.348 OA
HETATM    2  C   UNK     0     -48.758  -0.344  19.714  0.00  0.00     0.180 C 
HETATM    3  C   UNK     0     -48.668   0.969  18.933  0.00  0.00     0.180 C 
HETATM    4  C   UNK     0     -47.828   1.996  19.692  0.00  0.00     0.183 C 
HETATM    5  C   UNK     0     -46.498   1.396  20.146  0.00  0.00     0.204 C 
HETATM    6  C   UNK     0     -46.702   0.047  20.835  0.00  0.00     0.291 C 
ENDROOT
BRANCH   2   7
HETATM    7  C   UNK     0     -49.493  -1.423  18.925  0.00  0.00     0.205 C 
BRANCH   7   8
HETATM    8  O   UNK     0     -49.412  -1.117  17.540  0.00  0.00    -0.356 OA
BRANCH   8   9
HETATM    9  C   UNK     0     -48.832  -2.188  16.803  0.00  0.00     0.291 C 
HETATM   10  O   UNK     0     -47.487  -1.908  16.400  0.00  0.00    -0.351 OA
HETATM   11  C   UNK     0     -47.365  -0.813  15.486  0.00  0.00     0.152 C 
HETATM   12  C   UNK     0     -48.165  -1.074  14.202  0.00  0.00     0.178 C 
HETATM   13  C   UNK     0     -45.875  -0.631  15.205  0.00  0.00     0.042 C 
HETATM   14  C   UNK     0     -49.619  -1.396  14.547  0.00  0.00     0.183 C 
HETATM   15  C   UNK     0     -49.702  -2.512  15.590  0.00  0.00     0.204 C 
BRANCH  12  16
HETATM   16  O   UNK     0     -48.152   0.082  13.369  0.00  0.00    -0.390 OA
HETATM   17  H   UNK     0     -47.512   0.714  13.740  0.00  0.00     0.210 HD
ENDBRANCH  12  16
BRANCH  14  18
HETATM   18  O   UNK     0     -50.306  -1.789  13.361  0.00  0.00    -0.390 OA
HETATM   19  H   UNK     0     -50.710  -0.992  12.978  0.00  0.00     0.210 HD
ENDBRANCH  14  18
BRANCH  15  20
HETATM   20  O   UNK     0     -49.229  -3.738  15.030  0.00  0.00    -0.388 OA
HETATM   21  H   UNK     0     -49.533  -4.460  15.606  0.00  0.00     0.210 HD
ENDBRANCH  15  20
ENDBRANCH   8   9
ENDBRANCH   7   8
ENDBRANCH   2   7
BRANCH   6  22
HETATM   22  O   UNK     0     -45.415  -0.511  21.099  0.00  0.00    -0.358 OA
BRANCH  22  23
HETATM   23  C   UNK     0     -44.691  -0.729  19.898  0.00  0.00     0.175 C 
BRANCH  23  24
HETATM   24  C   UNK     0     -43.197  -0.777  20.200  0.00  0.00     0.065 C 
BRANCH  24  25
HETATM   25  C   UNK     0     -42.524   0.556  19.984  0.00  0.00    -0.053 A 
HETATM   26  C   UNK     0     -41.470   0.947  20.809  0.00  0.00     0.046 A 
HETATM   27  C   UNK     0     -40.847   2.179  20.608  0.00  0.00     0.099 A 
HETATM   28  C   UNK     0     -41.279   3.019  19.582  0.00  0.00     0.098 A 
HETATM   29  C   UNK     0     -42.332   2.628  18.756  0.00  0.00     0.040 A 
HETATM   30  C   UNK     0     -42.955   1.396  18.956  0.00  0.00     0.010 A 
BRANCH  27  31
HETATM   31  O   UNK     0     -39.818   2.550  21.419  0.00  0.00    -0.358 OA
HETATM   32  H   UNK     0     -39.003   2.608  20.891  0.00  0.00     0.217 HD
ENDBRANCH  27  31
BRANCH  28  33
HETATM   33  O   UNK     0     -40.678   4.225  19.375  0.00  0.00    -0.358 OA
HETATM   34  H   UNK     0     -40.131   4.173  18.572  0.00  0.00     0.217 HD
ENDBRANCH  28  33
ENDBRANCH  24  25
ENDBRANCH  23  24
ENDBRANCH  22  23
ENDBRANCH   6  22
BRANCH   3  35
HETATM   35  O   UNK     0     -49.980   1.488  18.731  0.00  0.00    -0.390 OA
HETATM   36  H   UNK     0     -50.312   1.143  17.885  0.00  0.00     0.210 HD
ENDBRANCH   3  35
BRANCH   5  37
HETATM   37  O   UNK     0     -45.871   2.281  21.074  0.00  0.00    -0.388 OA
HETATM   38  H   UNK     0     -46.106   3.192  20.828  0.00  0.00     0.210 HD
ENDBRANCH   5  37
BRANCH   4  39
HETATM   39  O   UNK     0     -47.579   3.097  18.816  0.00  0.00    -0.390 OA
HETATM   40  H   UNK     0     -47.790   2.816  17.909  0.00  0.00     0.210 HD
ENDBRANCH   4  39
TORSDOF 15
ENDMDL
MODEL 8
REMARK VINA RESULT:      -6.5      1.531      2.136
REMARK  15 active torsions:
REMARK  status: ('A' for Active; 'I' for Inactive)
REMARK    1  A    between atoms: O_2  and  C_18 
REMARK    2  A    between atoms: O_2  and  C_22 
REMARK    3  A    between atoms: O_4  and  C_14 
REMARK    4  A    between atoms: O_5  and  C_21 
REMARK    5  A    between atoms: O_5  and  C_25 
REMARK    6  A    between atoms: O_6  and  C_15 
REMARK    7  A    between atoms: O_7  and  C_16 
REMARK    8  A    between atoms: O_8  and  C_17 
REMARK    9  A    between atoms: O_9  and  C_19 
REMARK   10  A    between atoms: O_10  and  C_20 
REMARK   11  A    between atoms: O_11  and  C_30 
REMARK   12  A    between atoms: O_12  and  C_32 
REMARK   13  A    between atoms: C_13  and  C_22 
REMARK   14  A    between atoms: C_25  and  C_26 
REMARK   15  A    between atoms: C_26  and  C_27 
ROOT
HETATM    1  O   UNK     0     -46.767  -0.929  17.999  0.00  0.00    -0.348 OA
HETATM    2  C   UNK     0     -47.162  -0.309  16.773  0.00  0.00     0.180 C 
HETATM    3  C   UNK     0     -46.572  -1.075  15.587  0.00  0.00     0.180 C 
HETATM    4  C   UNK     0     -45.051  -1.177  15.709  0.00  0.00     0.183 C 
HETATM    5  C   UNK     0     -44.639  -1.671  17.095  0.00  0.00     0.204 C 
HETATM    6  C   UNK     0     -45.356  -0.894  18.199  0.00  0.00     0.291 C 
ENDROOT
BRANCH   2   7
HETATM    7  C   UNK     0     -48.687  -0.295  16.735  0.00  0.00     0.205 C 
BRANCH   7   8
HETATM    8  O   UNK     0     -49.149  -1.554  16.267  0.00  0.00    -0.356 OA
BRANCH   8   9
HETATM    9  C   UNK     0     -49.965  -2.202  17.236  0.00  0.00     0.291 C 
HETATM   10  O   UNK     0     -49.452  -3.485  17.613  0.00  0.00    -0.351 OA
HETATM   11  C   UNK     0     -49.429  -4.442  16.549  0.00  0.00     0.152 C 
HETATM   12  C   UNK     0     -50.838  -4.679  15.989  0.00  0.00     0.178 C 
HETATM   13  C   UNK     0     -48.816  -5.721  17.116  0.00  0.00     0.042 C 
HETATM   14  C   UNK     0     -51.467  -3.349  15.572  0.00  0.00     0.183 C 
HETATM   15  C   UNK     0     -51.393  -2.328  16.708  0.00  0.00     0.204 C 
BRANCH  12  16
HETATM   16  O   UNK     0     -50.778  -5.521  14.842  0.00  0.00    -0.390 OA
HETATM   17  H   UNK     0     -50.197  -6.273  15.049  0.00  0.00     0.210 HD
ENDBRANCH  12  16
BRANCH  14  18
HETATM   18  O   UNK     0     -52.827  -3.569  15.204  0.00  0.00    -0.390 OA
HETATM   19  H   UNK     0     -52.906  -4.492  14.909  0.00  0.00     0.210 HD
ENDBRANCH  14  18
BRANCH  15  20
HETATM   20  O   UNK     0     -52.223  -2.745  17.793  0.00  0.00    -0.388 OA
HETATM   21  H   UNK     0     -52.587  -1.945  18.209  0.00  0.00     0.210 HD
ENDBRANCH  15  20
ENDBRANCH   8   9
ENDBRANCH   7   8
ENDBRANCH   2   7
BRANCH   6  22
HETATM   22  O   UNK     0     -45.031  -1.504  19.448  0.00  0.00    -0.358 OA
BRANCH  22  23
HETATM   23  C   UNK     0     -44.707  -0.531  20.429  0.00  0.00     0.175 C 
BRANCH  23  24
HETATM   24  C   UNK     0     -43.250  -0.688  20.848  0.00  0.00     0.065 C 
BRANCH  24  25
HETATM   25  C   UNK     0     -42.456   0.580  20.650  0.00  0.00    -0.053 A 
HETATM   26  C   UNK     0     -42.610   1.325  19.481  0.00  0.00     0.046 A 
HETATM   27  C   UNK     0     -41.877   2.498  19.300  0.00  0.00     0.099 A 
HETATM   28  C   UNK     0     -40.988   2.924  20.287  0.00  0.00     0.098 A 
HETATM   29  C   UNK     0     -40.834   2.179  21.455  0.00  0.00     0.040 A 
HETATM   30  C   UNK     0     -41.567   1.007  21.638  0.00  0.00     0.010 A 
BRANCH  27  31
HETATM   31  O   UNK     0     -42.038   3.218  18.155  0.00  0.00    -0.358 OA
HETATM   32  H   UNK     0     -42.985   3.265  17.941  0.00  0.00     0.217 HD
ENDBRANCH  27  31
BRANCH  28  33
HETATM   33  O   UNK     0     -40.266   4.068  20.121  0.00  0.00    -0.358 OA
HETATM   34  H   UNK     0     -39.326   3.873  20.271  0.00  0.00     0.217 HD
ENDBRANCH  28  33
ENDBRANCH  24  25
ENDBRANCH  23  24
ENDBRANCH  22  23
ENDBRANCH   6  22
BRANCH   3  35
HETATM   35  O   UNK     0     -46.905  -0.399  14.378  0.00  0.00    -0.390 OA
HETATM   36  H   UNK     0     -47.426   0.389  14.607  0.00  0.00     0.210 HD
ENDBRANCH   3  35
BRANCH   5  37
HETATM   37  O   UNK     0     -43.233  -1.492  17.263  0.00  0.00    -0.388 OA
HETATM   38  H   UNK     0     -43.011  -1.703  18.187  0.00  0.00     0.210 HD
ENDBRANCH   5  37
BRANCH   4  39
HETATM   39  O   UNK     0     -44.590  -2.097  14.718  0.00  0.00    -0.390 OA
HETATM   40  H   UNK     0     -44.068  -2.786  15.165  0.00  0.00     0.210 HD
ENDBRANCH   4  39
TORSDOF 15
ENDMDL
MODEL 9
REMARK VINA RESULT:      -6.5      3.350      5.465
REMARK  15 active torsions:
REMARK  status: ('A' for Active; 'I' for Inactive)
REMARK    1  A    between atoms: O_2  and  C_18 
REMARK    2  A    between atoms: O_2  and  C_22 
REMARK    3  A    between atoms: O_4  and  C_14 
REMARK    4  A    between atoms: O_5  and  C_21 
REMARK    5  A    between atoms: O_5  and  C_25 
REMARK    6  A    between atoms: O_6  and  C_15 
REMARK    7  A    between atoms: O_7  and  C_16 
REMARK    8  A    between atoms: O_8  and  C_17 
REMARK    9  A    between atoms: O_9  and  C_19 
REMARK   10  A    between atoms: O_10  and  C_20 
REMARK   11  A    between atoms: O_11  and  C_30 
REMARK   12  A    between atoms: O_12  and  C_32 
REMARK   13  A    between atoms: C_13  and  C_22 
REMARK   14  A    between atoms: C_25  and  C_26 
REMARK   15  A    between atoms: C_26  and  C_27 
ROOT
HETATM    1  O   UNK     0     -49.319   0.638  19.072  0.00  0.00    -0.348 OA
HETATM    2  C   UNK     0     -50.643   1.003  18.681  0.00  0.00     0.180 C 
HETATM    3  C   UNK     0     -50.950   2.428  19.145  0.00  0.00     0.180 C 
HETATM    4  C   UNK     0     -50.745   2.564  20.654  0.00  0.00     0.183 C 
HETATM    5  C   UNK     0     -49.391   1.999  21.081  0.00  0.00     0.204 C 
HETATM    6  C   UNK     0     -49.155   0.611  20.489  0.00  0.00     0.291 C 
ENDROOT
BRANCH   2   7
HETATM    7  C   UNK     0     -50.727   0.872  17.163  0.00  0.00     0.205 C 
BRANCH   7   8
HETATM    8  O   UNK     0     -50.729  -0.505  16.817  0.00  0.00    -0.356 OA
BRANCH   8   9
HETATM    9  C   UNK     0     -51.116  -0.701  15.461  0.00  0.00     0.291 C 
HETATM   10  O   UNK     0     -52.012  -1.805  15.303  0.00  0.00    -0.351 OA
HETATM   11  C   UNK     0     -51.443  -3.075  15.640  0.00  0.00     0.152 C 
HETATM   12  C   UNK     0     -50.214  -3.377  14.772  0.00  0.00     0.178 C 
HETATM   13  C   UNK     0     -52.543  -4.119  15.457  0.00  0.00     0.042 C 
HETATM   14  C   UNK     0     -49.205  -2.233  14.875  0.00  0.00     0.183 C 
HETATM   15  C   UNK     0     -49.873  -0.886  14.592  0.00  0.00     0.204 C 
BRANCH  12  16
HETATM   16  O   UNK     0     -49.577  -4.571  15.216  0.00  0.00    -0.390 OA
HETATM   17  H   UNK     0     -49.783  -5.278  14.580  0.00  0.00     0.210 HD
ENDBRANCH  12  16
BRANCH  14  18
HETATM   18  O   UNK     0     -48.148  -2.454  13.944  0.00  0.00    -0.390 OA
HETATM   19  H   UNK     0     -48.491  -3.035  13.243  0.00  0.00     0.210 HD
ENDBRANCH  14  18
BRANCH  15  20
HETATM   20  O   UNK     0     -50.286  -0.824  13.225  0.00  0.00    -0.388 OA
HETATM   21  H   UNK     0     -50.727  -1.663  13.013  0.00  0.00     0.210 HD
ENDBRANCH  15  20
ENDBRANCH   8   9
ENDBRANCH   7   8
ENDBRANCH   2   7
BRANCH   6  22
HETATM   22  O   UNK     0     -47.822   0.215  20.812  0.00  0.00    -0.358 OA
BRANCH  22  23
HETATM   23  C   UNK     0     -47.273  -0.620  19.805  0.00  0.00     0.175 C 
BRANCH  23  24
HETATM   24  C   UNK     0     -45.832  -0.208  19.523  0.00  0.00     0.065 C 
BRANCH  24  25
HETATM   25  C   UNK     0     -45.363  -0.655  18.160  0.00  0.00    -0.053 A 
HETATM   26  C   UNK     0     -46.073  -0.281  17.020  0.00  0.00     0.046 A 
HETATM   27  C   UNK     0     -45.638  -0.693  15.761  0.00  0.00     0.099 A 
HETATM   28  C   UNK     0     -44.492  -1.480  15.642  0.00  0.00     0.098 A 
HETATM   29  C   UNK     0     -43.782  -1.853  16.782  0.00  0.00     0.040 A 
HETATM   30  C   UNK     0     -44.216  -1.441  18.042  0.00  0.00     0.010 A 
BRANCH  27  31
HETATM   31  O   UNK     0     -46.339  -0.320  14.654  0.00  0.00    -0.358 OA
HETATM   32  H   UNK     0     -46.850   0.482  14.859  0.00  0.00     0.217 HD
ENDBRANCH  27  31
BRANCH  28  33
HETATM   33  O   UNK     0     -44.057  -1.888  14.417  0.00  0.00    -0.358 OA
HETATM   34  H   UNK     0     -44.535  -2.697  14.164  0.00  0.00     0.217 HD
ENDBRANCH  28  33
ENDBRANCH  24  25
ENDBRANCH  23  24
ENDBRANCH  22  23
ENDBRANCH   6  22
BRANCH   3  35
HETATM   35  O   UNK     0     -52.301   2.748  18.822  0.00  0.00    -0.390 OA
HETATM   36  H   UNK     0     -52.629   2.074  18.203  0.00  0.00     0.210 HD
ENDBRANCH   3  35
BRANCH   5  37
HETATM   37  O   UNK     0     -49.350   1.890  22.504  0.00  0.00    -0.388 OA
HETATM   38  H   UNK     0     -49.590   0.979  22.744  0.00  0.00     0.210 HD
ENDBRANCH   5  37
BRANCH   4  39
HETATM   39  O   UNK     0     -50.808   3.952  20.986  0.00  0.00    -0.390 OA
HETATM   40  H   UNK     0     -50.022   4.388  20.614  0.00  0.00     0.210 HD
ENDBRANCH   4  39
TORSDOF 15
ENDMDL
MODEL 10
REMARK VINA RESULT:      -6.5      2.848      5.061
REMARK  15 active torsions:
REMARK  status: ('A' for Active; 'I' for Inactive)
REMARK    1  A    between atoms: O_2  and  C_18 
REMARK    2  A    between atoms: O_2  and  C_22 
REMARK    3  A    between atoms: O_4  and  C_14 
REMARK    4  A    between atoms: O_5  and  C_21 
REMARK    5  A    between atoms: O_5  and  C_25 
REMARK    6  A    between atoms: O_6  and  C_15 
REMARK    7  A    between atoms: O_7  and  C_16 
REMARK    8  A    between atoms: O_8  and  C_17 
REMARK    9  A    between atoms: O_9  and  C_19 
REMARK   10  A    between atoms: O_10  and  C_20 
REMARK   11  A    between atoms: O_11  and  C_30 
REMARK   12  A    between atoms: O_12  and  C_32 
REMARK   13  A    between atoms: C_13  and  C_22 
REMARK   14  A    between atoms: C_25  and  C_26 
REMARK   15  A    between atoms: C_26  and  C_27 
ROOT
HETATM    1  O   UNK     0     -49.148   0.342  18.588  0.00  0.00    -0.348 OA
HETATM    2  C   UNK     0     -50.440  -0.259  18.692  0.00  0.00     0.180 C 
HETATM    3  C   UNK     0     -51.519   0.749  18.290  0.00  0.00     0.180 C 
HETATM    4  C   UNK     0     -51.413   2.022  19.131  0.00  0.00     0.183 C 
HETATM    5  C   UNK     0     -49.980   2.551  19.155  0.00  0.00     0.204 C 
HETATM    6  C   UNK     0     -48.982   1.441  19.481  0.00  0.00     0.291 C 
ENDROOT
BRANCH   2   7
HETATM    7  C   UNK     0     -50.451  -1.489  17.790  0.00  0.00     0.205 C 
BRANCH   7   8
HETATM    8  O   UNK     0     -50.836  -1.097  16.480  0.00  0.00    -0.356 OA
BRANCH   8   9
HETATM    9  C   UNK     0     -50.431  -2.057  15.510  0.00  0.00     0.291 C 
HETATM   10  O   UNK     0     -49.268  -2.786  15.915  0.00  0.00    -0.351 OA
HETATM   11  C   UNK     0     -48.091  -1.983  16.053  0.00  0.00     0.152 C 
HETATM   12  C   UNK     0     -47.738  -1.289  14.729  0.00  0.00     0.178 C 
HETATM   13  C   UNK     0     -46.974  -2.908  16.529  0.00  0.00     0.042 C 
HETATM   14  C   UNK     0     -48.939  -0.493  14.218  0.00  0.00     0.183 C 
HETATM   15  C   UNK     0     -50.194  -1.367  14.168  0.00  0.00     0.204 C 
BRANCH  12  16
HETATM   16  O   UNK     0     -46.655  -0.384  14.920  0.00  0.00    -0.390 OA
HETATM   17  H   UNK     0     -46.954   0.504  14.661  0.00  0.00     0.210 HD
ENDBRANCH  12  16
BRANCH  14  18
HETATM   18  O   UNK     0     -48.647   0.011  12.916  0.00  0.00    -0.390 OA
HETATM   19  H   UNK     0     -47.687  -0.062  12.782  0.00  0.00     0.210 HD
ENDBRANCH  14  18
BRANCH  15  20
HETATM   20  O   UNK     0     -50.042  -2.384  13.176  0.00  0.00    -0.388 OA
HETATM   21  H   UNK     0     -50.921  -2.568  12.807  0.00  0.00     0.210 HD
ENDBRANCH  15  20
ENDBRANCH   8   9
ENDBRANCH   7   8
ENDBRANCH   2   7
BRANCH   6  22
HETATM   22  O   UNK     0     -47.666   1.978  19.345  0.00  0.00    -0.358 OA
BRANCH  22  23
HETATM   23  C   UNK     0     -46.851   1.634  20.454  0.00  0.00     0.175 C 
BRANCH  23  24
HETATM   24  C   UNK     0     -45.382   1.816  20.089  0.00  0.00     0.065 C 
BRANCH  24  25
HETATM   25  C   UNK     0     -44.797   0.589  19.434  0.00  0.00    -0.053 A 
HETATM   26  C   UNK     0     -44.791   0.476  18.044  0.00  0.00     0.046 A 
HETATM   27  C   UNK     0     -44.248  -0.658  17.439  0.00  0.00     0.099 A 
HETATM   28  C   UNK     0     -43.712  -1.678  18.224  0.00  0.00     0.098 A 
HETATM   29  C   UNK     0     -43.718  -1.565  19.613  0.00  0.00     0.040 A 
HETATM   30  C   UNK     0     -44.260  -0.432  20.219  0.00  0.00     0.010 A 
BRANCH  27  31
HETATM   31  O   UNK     0     -44.247  -0.756  16.080  0.00  0.00    -0.358 OA
HETATM   32  H   UNK     0     -43.339  -0.625  15.754  0.00  0.00     0.217 HD
ENDBRANCH  27  31
BRANCH  28  33
HETATM   33  O   UNK     0     -43.179  -2.791  17.643  0.00  0.00    -0.358 OA
HETATM   34  H   UNK     0     -42.212  -2.697  17.611  0.00  0.00     0.217 HD
ENDBRANCH  28  33
ENDBRANCH  24  25
ENDBRANCH  23  24
ENDBRANCH  22  23
ENDBRANCH   6  22
BRANCH   3  35
HETATM   35  O   UNK     0     -52.804   0.164  18.479  0.00  0.00    -0.390 OA
HETATM   36  H   UNK     0     -52.909  -0.549  17.826  0.00  0.00     0.210 HD
ENDBRANCH   3  35
BRANCH   5  37
HETATM   37  O   UNK     0     -49.865   3.563  20.156  0.00  0.00    -0.388 OA
HETATM   38  H   UNK     0     -49.268   4.253  19.820  0.00  0.00     0.210 HD
ENDBRANCH   5  37
BRANCH   4  39
HETATM   39  O   UNK     0     -52.274   3.005  18.553  0.00  0.00    -0.390 OA
HETATM   40  H   UNK     0     -52.681   2.622  17.757  0.00  0.00     0.210 HD
ENDBRANCH   4  39
TORSDOF 15
ENDMDL
