MODEL 1
REMARK VINA RESULT:      -7.4      0.000      0.000
REMARK  4 active torsions:
REMARK  status: ('A' for Active; 'I' for Inactive)
REMARK    1  A    between atoms: O_2  and  C_9 
REMARK    2  A    between atoms: O_3  and  C_14 
REMARK    3  A    between atoms: O_4  and  C_15 
REMARK    4  A    between atoms: C_8  and  C_12 
ROOT
HETATM    1  O   UNK     0     -43.924   0.076  17.584  0.00  0.00    -0.309 OA
HETATM    2  O   UNK     0     -47.643   1.227  18.783  0.00  0.00    -0.287 OA
HETATM    3  C   UNK     0     -46.333  -0.124  17.354  0.00  0.00     0.084 A 
HETATM    4  C   UNK     0     -45.033  -0.472  16.993  0.00  0.00     0.096 A 
HETATM    5  C   UNK     0     -44.107   1.025  18.578  0.00  0.00     0.090 A 
HETATM    6  C   UNK     0     -47.427  -0.716  16.718  0.00  0.00     0.118 A 
HETATM    7  C   UNK     0     -46.531   0.876  18.415  0.00  0.00     0.190 A 
HETATM    8  C   UNK     0     -45.306   1.439  19.018  0.00  0.00     0.094 A 
HETATM    9  C   UNK     0     -44.819  -1.420  15.992  0.00  0.00     0.077 A 
HETATM   10  C   UNK     0     -47.209  -1.663  15.716  0.00  0.00     0.133 A 
HETATM   11  C   UNK     0     -45.908  -2.013  15.354  0.00  0.00     0.104 A 
ENDROOT
BRANCH   5  12
HETATM   12  C   UNK     0     -42.848   1.545  19.150  0.00  0.00    -0.002 A 
HETATM   13  C   UNK     0     -42.320   2.757  18.698  0.00  0.00     0.014 A 
HETATM   14  C   UNK     0     -41.131   3.249  19.236  0.00  0.00     0.001 A 
HETATM   15  C   UNK     0     -40.466   2.530  20.229  0.00  0.00     0.000 A 
HETATM   16  C   UNK     0     -40.989   1.319  20.683  0.00  0.00     0.001 A 
HETATM   17  C   UNK     0     -42.178   0.828  20.143  0.00  0.00     0.014 A 
ENDBRANCH   5  12
BRANCH   6  18
HETATM   18  O   UNK     0     -48.712  -0.399  17.044  0.00  0.00    -0.357 OA
HETATM   19  H   UNK     0     -49.253  -0.292  16.246  0.00  0.00     0.217 HD
ENDBRANCH   6  18
BRANCH  11  20
HETATM   20  O   UNK     0     -45.687  -2.937  14.376  0.00  0.00    -0.358 OA
HETATM   21  H   UNK     0     -44.892  -2.672  13.880  0.00  0.00     0.217 HD
ENDBRANCH  11  20
BRANCH  10  22
HETATM   22  O   UNK     0     -48.268  -2.249  15.088  0.00  0.00    -0.356 OA
HETATM   23  H   UNK     0     -48.773  -1.557  14.624  0.00  0.00     0.218 HD
ENDBRANCH  10  22
TORSDOF 4
ENDMDL
MODEL 2
REMARK VINA RESULT:      -6.5      2.411      3.853
REMARK  4 active torsions:
REMARK  status: ('A' for Active; 'I' for Inactive)
REMARK    1  A    between atoms: O_2  and  C_9 
REMARK    2  A    between atoms: O_3  and  C_14 
REMARK    3  A    between atoms: O_4  and  C_15 
REMARK    4  A    between atoms: C_8  and  C_12 
ROOT
HETATM    1  O   UNK     0     -46.526  -2.530  17.465  0.00  0.00    -0.309 OA
HETATM    2  O   UNK     0     -48.141  -0.431  14.370  0.00  0.00    -0.287 OA
HETATM    3  C   UNK     0     -48.204  -2.371  15.717  0.00  0.00     0.084 A 
HETATM    4  C   UNK     0     -47.604  -3.036  16.785  0.00  0.00     0.096 A 
HETATM    5  C   UNK     0     -46.007  -1.308  17.066  0.00  0.00     0.090 A 
HETATM    6  C   UNK     0     -49.301  -2.934  15.061  0.00  0.00     0.118 A 
HETATM    7  C   UNK     0     -47.662  -1.070  15.296  0.00  0.00     0.190 A 
HETATM    8  C   UNK     0     -46.500  -0.570  16.058  0.00  0.00     0.094 A 
HETATM    9  C   UNK     0     -48.100  -4.271  17.204  0.00  0.00     0.077 A 
HETATM   10  C   UNK     0     -49.795  -4.170  15.482  0.00  0.00     0.133 A 
HETATM   11  C   UNK     0     -49.195  -4.836  16.552  0.00  0.00     0.104 A 
ENDROOT
BRANCH   5  12
HETATM   12  C   UNK     0     -44.853  -0.855  17.869  0.00  0.00    -0.002 A 
HETATM   13  C   UNK     0     -44.664   0.506  18.120  0.00  0.00     0.014 A 
HETATM   14  C   UNK     0     -43.574   0.935  18.878  0.00  0.00     0.001 A 
HETATM   15  C   UNK     0     -42.669   0.003  19.387  0.00  0.00     0.000 A 
HETATM   16  C   UNK     0     -42.855  -1.357  19.138  0.00  0.00     0.001 A 
HETATM   17  C   UNK     0     -43.945  -1.785  18.380  0.00  0.00     0.014 A 
ENDBRANCH   5  12
BRANCH   6  18
HETATM   18  O   UNK     0     -49.913  -2.313  14.012  0.00  0.00    -0.357 OA
HETATM   19  H   UNK     0     -49.260  -1.891  13.433  0.00  0.00     0.217 HD
ENDBRANCH   6  18
BRANCH  11  20
HETATM   20  O   UNK     0     -49.670  -6.044  16.969  0.00  0.00    -0.358 OA
HETATM   21  H   UNK     0     -49.152  -6.325  17.744  0.00  0.00     0.217 HD
ENDBRANCH  11  20
BRANCH  10  22
HETATM   22  O   UNK     0     -50.866  -4.730  14.851  0.00  0.00    -0.356 OA
HETATM   23  H   UNK     0     -51.642  -4.652  15.434  0.00  0.00     0.218 HD
ENDBRANCH  10  22
TORSDOF 4
ENDMDL
MODEL 3
REMARK VINA RESULT:      -6.2      1.727      2.699
REMARK  4 active torsions:
REMARK  status: ('A' for Active; 'I' for Inactive)
REMARK    1  A    between atoms: O_2  and  C_9 
REMARK    2  A    between atoms: O_3  and  C_14 
REMARK    3  A    between atoms: O_4  and  C_15 
REMARK    4  A    between atoms: C_8  and  C_12 
ROOT
HETATM    1  O   UNK     0     -46.092  -0.760  16.723  0.00  0.00    -0.309 OA
HETATM    2  O   UNK     0     -49.534   0.815  18.227  0.00  0.00    -0.287 OA
HETATM    3  C   UNK     0     -48.500  -0.496  16.555  0.00  0.00     0.084 A 
HETATM    4  C   UNK     0     -47.286  -1.004  16.095  0.00  0.00     0.096 A 
HETATM    5  C   UNK     0     -46.093   0.033  17.860  0.00  0.00     0.090 A 
HETATM    6  C   UNK     0     -49.687  -0.778  15.876  0.00  0.00     0.118 A 
HETATM    7  C   UNK     0     -48.506   0.339  17.766  0.00  0.00     0.190 A 
HETATM    8  C   UNK     0     -47.195   0.574  18.403  0.00  0.00     0.094 A 
HETATM    9  C   UNK     0     -47.253  -1.801  14.950  0.00  0.00     0.077 A 
HETATM   10  C   UNK     0     -49.651  -1.574  14.730  0.00  0.00     0.133 A 
HETATM   11  C   UNK     0     -48.437  -2.084  14.269  0.00  0.00     0.104 A 
ENDROOT
BRANCH   5  12
HETATM   12  C   UNK     0     -44.756   0.227  18.457  0.00  0.00    -0.002 A 
HETATM   13  C   UNK     0     -43.932  -0.874  18.705  0.00  0.00     0.014 A 
HETATM   14  C   UNK     0     -42.669  -0.692  19.270  0.00  0.00     0.001 A 
HETATM   15  C   UNK     0     -42.227   0.592  19.589  0.00  0.00     0.000 A 
HETATM   16  C   UNK     0     -43.047   1.693  19.344  0.00  0.00     0.001 A 
HETATM   17  C   UNK     0     -44.310   1.511  18.779  0.00  0.00     0.014 A 
ENDBRANCH   5  12
BRANCH   6  18
HETATM   18  O   UNK     0     -50.892  -0.298  16.296  0.00  0.00    -0.357 OA
HETATM   19  H   UNK     0     -50.777   0.509  16.821  0.00  0.00     0.217 HD
ENDBRANCH   6  18
BRANCH  11  20
HETATM   20  O   UNK     0     -48.393  -2.862  13.150  0.00  0.00    -0.358 OA
HETATM   21  H   UNK     0     -48.487  -2.284  12.372  0.00  0.00     0.217 HD
ENDBRANCH  11  20
BRANCH  10  22
HETATM   22  O   UNK     0     -50.803  -1.858  14.058  0.00  0.00    -0.356 OA
HETATM   23  H   UNK     0     -51.056  -2.777  14.256  0.00  0.00     0.218 HD
ENDBRANCH  10  22
TORSDOF 4
ENDMDL
MODEL 4
REMARK VINA RESULT:      -6.2      2.203      4.094
REMARK  4 active torsions:
REMARK  status: ('A' for Active; 'I' for Inactive)
REMARK    1  A    between atoms: O_2  and  C_9 
REMARK    2  A    between atoms: O_3  and  C_14 
REMARK    3  A    between atoms: O_4  and  C_15 
REMARK    4  A    between atoms: C_8  and  C_12 
ROOT
HETATM    1  O   UNK     0     -47.045   0.829  18.178  0.00  0.00    -0.309 OA
HETATM    2  O   UNK     0     -43.226  -0.571  18.400  0.00  0.00    -0.287 OA
HETATM    3  C   UNK     0     -45.308  -0.611  17.282  0.00  0.00     0.084 A 
HETATM    4  C   UNK     0     -46.600  -0.091  17.264  0.00  0.00     0.096 A 
HETATM    5  C   UNK     0     -46.172   1.251  19.169  0.00  0.00     0.090 A 
HETATM    6  C   UNK     0     -44.908  -1.545  16.323  0.00  0.00     0.118 A 
HETATM    7  C   UNK     0     -44.375  -0.158  18.326  0.00  0.00     0.190 A 
HETATM    8  C   UNK     0     -44.903   0.830  19.288  0.00  0.00     0.094 A 
HETATM    9  C   UNK     0     -47.503  -0.502  16.283  0.00  0.00     0.077 A 
HETATM   10  C   UNK     0     -45.814  -1.956  15.344  0.00  0.00     0.133 A 
HETATM   11  C   UNK     0     -47.108  -1.435  15.324  0.00  0.00     0.104 A 
ENDROOT
BRANCH   5  12
HETATM   12  C   UNK     0     -46.752   2.244  20.096  0.00  0.00    -0.002 A 
HETATM   13  C   UNK     0     -47.850   3.013  19.704  0.00  0.00     0.014 A 
HETATM   14  C   UNK     0     -48.398   3.951  20.579  0.00  0.00     0.001 A 
HETATM   15  C   UNK     0     -47.848   4.123  21.850  0.00  0.00     0.000 A 
HETATM   16  C   UNK     0     -46.751   3.358  22.245  0.00  0.00     0.001 A 
HETATM   17  C   UNK     0     -46.204   2.420  21.369  0.00  0.00     0.014 A 
ENDBRANCH   5  12
BRANCH   6  18
HETATM   18  O   UNK     0     -43.652  -2.076  16.310  0.00  0.00    -0.357 OA
HETATM   19  H   UNK     0     -43.502  -2.623  17.097  0.00  0.00     0.217 HD
ENDBRANCH   6  18
BRANCH  11  20
HETATM   20  O   UNK     0     -47.999  -1.831  14.371  0.00  0.00    -0.358 OA
HETATM   21  H   UNK     0     -48.734  -2.291  14.813  0.00  0.00     0.217 HD
ENDBRANCH  11  20
BRANCH  10  22
HETATM   22  O   UNK     0     -45.436  -2.866  14.401  0.00  0.00    -0.356 OA
HETATM   23  H   UNK     0     -44.468  -2.822  14.301  0.00  0.00     0.218 HD
ENDBRANCH  10  22
TORSDOF 4
ENDMDL
MODEL 5
REMARK VINA RESULT:      -6.1      1.336      3.253
REMARK  4 active torsions:
REMARK  status: ('A' for Active; 'I' for Inactive)
REMARK    1  A    between atoms: O_2  and  C_9 
REMARK    2  A    between atoms: O_3  and  C_14 
REMARK    3  A    between atoms: O_4  and  C_15 
REMARK    4  A    between atoms: C_8  and  C_12 
ROOT
HETATM    1  O   UNK     0     -46.077   0.114  17.901  0.00  0.00    -0.309 OA
HETATM    2  O   UNK     0     -45.018  -2.158  14.690  0.00  0.00    -0.287 OA
HETATM    3  C   UNK     0     -46.754  -1.199  15.974  0.00  0.00     0.084 A 
HETATM    4  C   UNK     0     -47.046  -0.413  17.087  0.00  0.00     0.096 A 
HETATM    5  C   UNK     0     -44.749  -0.155  17.607  0.00  0.00     0.090 A 
HETATM    6  C   UNK     0     -47.783  -1.709  15.179  0.00  0.00     0.118 A 
HETATM    7  C   UNK     0     -45.346  -1.479  15.653  0.00  0.00     0.190 A 
HETATM    8  C   UNK     0     -44.340  -0.891  16.561  0.00  0.00     0.094 A 
HETATM    9  C   UNK     0     -48.373  -0.131  17.413  0.00  0.00     0.077 A 
HETATM   10  C   UNK     0     -49.110  -1.426  15.507  0.00  0.00     0.133 A 
HETATM   11  C   UNK     0     -49.404  -0.639  16.621  0.00  0.00     0.104 A 
ENDROOT
BRANCH   5  12
HETATM   12  C   UNK     0     -43.789   0.465  18.543  0.00  0.00    -0.002 A 
HETATM   13  C   UNK     0     -43.150  -0.313  19.510  0.00  0.00     0.014 A 
HETATM   14  C   UNK     0     -42.243   0.271  20.395  0.00  0.00     0.001 A 
HETATM   15  C   UNK     0     -41.974   1.638  20.314  0.00  0.00     0.000 A 
HETATM   16  C   UNK     0     -42.610   2.418  19.350  0.00  0.00     0.001 A 
HETATM   17  C   UNK     0     -43.517   1.833  18.466  0.00  0.00     0.014 A 
ENDBRANCH   5  12
BRANCH   6  18
HETATM   18  O   UNK     0     -47.536  -2.482  14.084  0.00  0.00    -0.357 OA
HETATM   19  H   UNK     0     -46.582  -2.610  13.962  0.00  0.00     0.217 HD
ENDBRANCH   6  18
BRANCH  11  20
HETATM   20  O   UNK     0     -50.697  -0.359  16.949  0.00  0.00    -0.358 OA
HETATM   21  H   UNK     0     -51.203  -1.190  16.934  0.00  0.00     0.217 HD
ENDBRANCH  11  20
BRANCH  10  22
HETATM   22  O   UNK     0     -50.124  -1.917  14.739  0.00  0.00    -0.356 OA
HETATM   23  H   UNK     0     -50.874  -1.299  14.788  0.00  0.00     0.218 HD
ENDBRANCH  10  22
TORSDOF 4
ENDMDL
MODEL 6
REMARK VINA RESULT:      -5.9      1.601      2.959
REMARK  4 active torsions:
REMARK  status: ('A' for Active; 'I' for Inactive)
REMARK    1  A    between atoms: O_2  and  C_9 
REMARK    2  A    between atoms: O_3  and  C_14 
REMARK    3  A    between atoms: O_4  and  C_15 
REMARK    4  A    between atoms: C_8  and  C_12 
ROOT
HETATM    1  O   UNK     0     -44.817   1.315  18.904  0.00  0.00    -0.309 OA
HETATM    2  O   UNK     0     -43.439  -2.427  18.074  0.00  0.00    -0.287 OA
HETATM    3  C   UNK     0     -45.265  -0.928  18.089  0.00  0.00     0.084 A 
HETATM    4  C   UNK     0     -45.670   0.370  18.394  0.00  0.00     0.096 A 
HETATM    5  C   UNK     0     -43.497   0.959  19.133  0.00  0.00     0.090 A 
HETATM    6  C   UNK     0     -46.178  -1.849  17.570  0.00  0.00     0.118 A 
HETATM    7  C   UNK     0     -43.863  -1.307  18.322  0.00  0.00     0.190 A 
HETATM    8  C   UNK     0     -42.986  -0.256  18.874  0.00  0.00     0.094 A 
HETATM    9  C   UNK     0     -46.994   0.756  18.181  0.00  0.00     0.077 A 
HETATM   10  C   UNK     0     -47.502  -1.461  17.359  0.00  0.00     0.133 A 
HETATM   11  C   UNK     0     -47.908  -0.161  17.663  0.00  0.00     0.104 A 
ENDROOT
BRANCH   5  12
HETATM   12  C   UNK     0     -42.666   2.052  19.677  0.00  0.00    -0.002 A 
HETATM   13  C   UNK     0     -42.746   2.387  21.031  0.00  0.00     0.014 A 
HETATM   14  C   UNK     0     -41.962   3.420  21.546  0.00  0.00     0.001 A 
HETATM   15  C   UNK     0     -41.095   4.120  20.707  0.00  0.00     0.000 A 
HETATM   16  C   UNK     0     -41.012   3.789  19.355  0.00  0.00     0.001 A 
HETATM   17  C   UNK     0     -41.797   2.757  18.841  0.00  0.00     0.014 A 
ENDBRANCH   5  12
BRANCH   6  18
HETATM   18  O   UNK     0     -45.818  -3.128  17.261  0.00  0.00    -0.357 OA
HETATM   19  H   UNK     0     -45.782  -3.251  16.299  0.00  0.00     0.217 HD
ENDBRANCH   6  18
BRANCH  11  20
HETATM   20  O   UNK     0     -49.200   0.226  17.460  0.00  0.00    -0.358 OA
HETATM   21  H   UNK     0     -49.501   0.710  18.249  0.00  0.00     0.217 HD
ENDBRANCH  11  20
BRANCH  10  22
HETATM   22  O   UNK     0     -48.403  -2.351  16.852  0.00  0.00    -0.356 OA
HETATM   23  H   UNK     0     -48.210  -2.479  15.906  0.00  0.00     0.218 HD
ENDBRANCH  10  22
TORSDOF 4
ENDMDL
MODEL 7
REMARK VINA RESULT:      -5.8      1.337      3.209
REMARK  4 active torsions:
REMARK  status: ('A' for Active; 'I' for Inactive)
REMARK    1  A    between atoms: O_2  and  C_9 
REMARK    2  A    between atoms: O_3  and  C_14 
REMARK    3  A    between atoms: O_4  and  C_15 
REMARK    4  A    between atoms: C_8  and  C_12 
ROOT
HETATM    1  O   UNK     0     -45.115   1.477  19.035  0.00  0.00    -0.309 OA
HETATM    2  O   UNK     0     -45.122  -1.745  16.542  0.00  0.00    -0.287 OA
HETATM    3  C   UNK     0     -46.379  -0.139  17.736  0.00  0.00     0.084 A 
HETATM    4  C   UNK     0     -46.304   0.961  18.589  0.00  0.00     0.096 A 
HETATM    5  C   UNK     0     -43.937   0.872  18.625  0.00  0.00     0.090 A 
HETATM    6  C   UNK     0     -47.619  -0.622  17.312  0.00  0.00     0.118 A 
HETATM    7  C   UNK     0     -45.130  -0.778  17.291  0.00  0.00     0.190 A 
HETATM    8  C   UNK     0     -43.877  -0.187  17.802  0.00  0.00     0.094 A 
HETATM    9  C   UNK     0     -47.474   1.586  19.023  0.00  0.00     0.077 A 
HETATM   10  C   UNK     0     -48.787   0.005  17.749  0.00  0.00     0.133 A 
HETATM   11  C   UNK     0     -48.714   1.106  18.602  0.00  0.00     0.104 A 
ENDROOT
BRANCH   5  12
HETATM   12  C   UNK     0     -42.717   1.511  19.159  0.00  0.00    -0.002 A 
HETATM   13  C   UNK     0     -41.965   0.872  20.148  0.00  0.00     0.014 A 
HETATM   14  C   UNK     0     -40.813   1.474  20.653  0.00  0.00     0.001 A 
HETATM   15  C   UNK     0     -40.410   2.720  20.171  0.00  0.00     0.000 A 
HETATM   16  C   UNK     0     -41.158   3.361  19.184  0.00  0.00     0.001 A 
HETATM   17  C   UNK     0     -42.310   2.758  18.680  0.00  0.00     0.014 A 
ENDBRANCH   5  12
BRANCH   6  18
HETATM   18  O   UNK     0     -47.731  -1.696  16.479  0.00  0.00    -0.357 OA
HETATM   19  H   UNK     0     -47.417  -2.504  16.915  0.00  0.00     0.217 HD
ENDBRANCH   6  18
BRANCH  11  20
HETATM   20  O   UNK     0     -49.850   1.724  19.034  0.00  0.00    -0.358 OA
HETATM   21  H   UNK     0     -50.086   1.357  19.904  0.00  0.00     0.217 HD
ENDBRANCH  11  20
BRANCH  10  22
HETATM   22  O   UNK     0     -50.004  -0.456  17.342  0.00  0.00    -0.356 OA
HETATM   23  H   UNK     0     -49.885  -0.944  16.507  0.00  0.00     0.218 HD
ENDBRANCH  10  22
TORSDOF 4
ENDMDL
MODEL 8
REMARK VINA RESULT:      -5.5     15.377     18.858
REMARK  4 active torsions:
REMARK  status: ('A' for Active; 'I' for Inactive)
REMARK    1  A    between atoms: O_2  and  C_9 
REMARK    2  A    between atoms: O_3  and  C_14 
REMARK    3  A    between atoms: O_4  and  C_15 
REMARK    4  A    between atoms: C_8  and  C_12 
ROOT
HETATM    1  O   UNK     0     -57.329  -0.642   5.158  0.00  0.00    -0.309 OA
HETATM    2  O   UNK     0     -59.592  -4.029   5.163  0.00  0.00    -0.287 OA
HETATM    3  C   UNK     0     -58.219  -2.541   6.381  0.00  0.00     0.084 A 
HETATM    4  C   UNK     0     -57.461  -1.373   6.310  0.00  0.00     0.096 A 
HETATM    5  C   UNK     0     -57.971  -1.089   4.013  0.00  0.00     0.090 A 
HETATM    6  C   UNK     0     -58.320  -3.246   7.583  0.00  0.00     0.118 A 
HETATM    7  C   UNK     0     -58.909  -3.014   5.172  0.00  0.00     0.190 A 
HETATM    8  C   UNK     0     -58.733  -2.193   3.957  0.00  0.00     0.094 A 
HETATM    9  C   UNK     0     -56.799  -0.902   7.444  0.00  0.00     0.077 A 
HETATM   10  C   UNK     0     -57.655  -2.772   8.716  0.00  0.00     0.133 A 
HETATM   11  C   UNK     0     -56.897  -1.603   8.645  0.00  0.00     0.104 A 
ENDROOT
BRANCH   5  12
HETATM   12  C   UNK     0     -57.766  -0.225   2.833  0.00  0.00    -0.002 A 
HETATM   13  C   UNK     0     -57.831  -0.766   1.547  0.00  0.00     0.014 A 
HETATM   14  C   UNK     0     -57.638   0.049   0.432  0.00  0.00     0.001 A 
HETATM   15  C   UNK     0     -57.378   1.410   0.601  0.00  0.00     0.000 A 
HETATM   16  C   UNK     0     -57.312   1.954   1.883  0.00  0.00     0.001 A 
HETATM   17  C   UNK     0     -57.505   1.137   2.998  0.00  0.00     0.014 A 
ENDBRANCH   5  12
BRANCH   6  18
HETATM   18  O   UNK     0     -59.051  -4.391   7.691  0.00  0.00    -0.357 OA
HETATM   19  H   UNK     0     -58.822  -5.013   6.982  0.00  0.00     0.217 HD
ENDBRANCH   6  18
BRANCH  11  20
HETATM   20  O   UNK     0     -56.243  -1.134   9.747  0.00  0.00    -0.358 OA
HETATM   21  H   UNK     0     -56.318  -1.801  10.452  0.00  0.00     0.217 HD
ENDBRANCH  11  20
BRANCH  10  22
HETATM   22  O   UNK     0     -57.746  -3.451   9.895  0.00  0.00    -0.356 OA
HETATM   23  H   UNK     0     -58.553  -3.160  10.355  0.00  0.00     0.218 HD
ENDBRANCH  10  22
TORSDOF 4
ENDMDL
MODEL 9
REMARK VINA RESULT:      -5.5      5.450      8.680
REMARK  4 active torsions:
REMARK  status: ('A' for Active; 'I' for Inactive)
REMARK    1  A    between atoms: O_2  and  C_9 
REMARK    2  A    between atoms: O_3  and  C_14 
REMARK    3  A    between atoms: O_4  and  C_15 
REMARK    4  A    between atoms: C_8  and  C_12 
ROOT
HETATM    1  O   UNK     0     -50.298  -4.337  16.020  0.00  0.00    -0.309 OA
HETATM    2  O   UNK     0     -46.505  -3.546  17.280  0.00  0.00    -0.287 OA
HETATM    3  C   UNK     0     -48.321  -2.932  15.899  0.00  0.00     0.084 A 
HETATM    4  C   UNK     0     -49.620  -3.259  15.513  0.00  0.00     0.096 A 
HETATM    5  C   UNK     0     -49.658  -5.140  16.952  0.00  0.00     0.090 A 
HETATM    6  C   UNK     0     -47.679  -1.820  15.348  0.00  0.00     0.118 A 
HETATM    7  C   UNK     0     -47.643  -3.776  16.894  0.00  0.00     0.190 A 
HETATM    8  C   UNK     0     -48.413  -4.926  17.408  0.00  0.00     0.094 A 
HETATM    9  C   UNK     0     -50.286  -2.473  14.572  0.00  0.00     0.077 A 
HETATM   10  C   UNK     0     -48.348  -1.036  14.406  0.00  0.00     0.133 A 
HETATM   11  C   UNK     0     -49.648  -1.363  14.020  0.00  0.00     0.104 A 
ENDROOT
BRANCH   5  12
HETATM   12  C   UNK     0     -50.479  -6.269  17.437  0.00  0.00    -0.002 A 
HETATM   13  C   UNK     0     -51.867  -6.138  17.527  0.00  0.00     0.014 A 
HETATM   14  C   UNK     0     -52.644  -7.203  17.985  0.00  0.00     0.001 A 
HETATM   15  C   UNK     0     -52.033  -8.402  18.353  0.00  0.00     0.000 A 
HETATM   16  C   UNK     0     -50.648  -8.536  18.264  0.00  0.00     0.001 A 
HETATM   17  C   UNK     0     -49.872  -7.471  17.807  0.00  0.00     0.014 A 
ENDBRANCH   5  12
BRANCH   6  18
HETATM   18  O   UNK     0     -46.410  -1.469  15.701  0.00  0.00    -0.357 OA
HETATM   19  H   UNK     0     -46.131  -0.668  15.230  0.00  0.00     0.217 HD
ENDBRANCH   6  18
BRANCH  11  20
HETATM   20  O   UNK     0     -50.308  -0.603  13.100  0.00  0.00    -0.358 OA
HETATM   21  H   UNK     0     -51.113  -1.080  12.831  0.00  0.00     0.217 HD
ENDBRANCH  11  20
BRANCH  10  22
HETATM   22  O   UNK     0     -47.733   0.053  13.862  0.00  0.00    -0.356 OA
HETATM   23  H   UNK     0     -47.615  -0.106  12.909  0.00  0.00     0.218 HD
ENDBRANCH  10  22
TORSDOF 4
ENDMDL
MODEL 10
REMARK VINA RESULT:      -5.4     13.932     15.826
REMARK  4 active torsions:
REMARK  status: ('A' for Active; 'I' for Inactive)
REMARK    1  A    between atoms: O_2  and  C_9 
REMARK    2  A    between atoms: O_3  and  C_14 
REMARK    3  A    between atoms: O_4  and  C_15 
REMARK    4  A    between atoms: C_8  and  C_12 
ROOT
HETATM    1  O   UNK     0     -33.469  -9.093  17.524  0.00  0.00    -0.309 OA
HETATM    2  O   UNK     0     -34.634 -11.979  20.152  0.00  0.00    -0.287 OA
HETATM    3  C   UNK     0     -34.531  -9.678  19.628  0.00  0.00     0.084 A 
HETATM    4  C   UNK     0     -34.107  -8.743  18.686  0.00  0.00     0.096 A 
HETATM    5  C   UNK     0     -33.229 -10.437  17.282  0.00  0.00     0.090 A 
HETATM    6  C   UNK     0     -35.178  -9.263  20.794  0.00  0.00     0.118 A 
HETATM    7  C   UNK     0     -34.287 -11.106  19.371  0.00  0.00     0.190 A 
HETATM    8  C   UNK     0     -33.595 -11.431  18.107  0.00  0.00     0.094 A 
HETATM    9  C   UNK     0     -34.328  -7.383  18.905  0.00  0.00     0.077 A 
HETATM   10  C   UNK     0     -35.397  -7.901  21.012  0.00  0.00     0.133 A 
HETATM   11  C   UNK     0     -34.973  -6.964  20.069  0.00  0.00     0.104 A 
ENDROOT
BRANCH   5  12
HETATM   12  C   UNK     0     -32.543 -10.703  16.001  0.00  0.00    -0.002 A 
HETATM   13  C   UNK     0     -32.809 -11.878  15.293  0.00  0.00     0.014 A 
HETATM   14  C   UNK     0     -32.160 -12.130  14.084  0.00  0.00     0.001 A 
HETATM   15  C   UNK     0     -31.243 -11.208  13.580  0.00  0.00     0.000 A 
HETATM   16  C   UNK     0     -30.975 -10.034  14.284  0.00  0.00     0.001 A 
HETATM   17  C   UNK     0     -31.623  -9.783  15.493  0.00  0.00     0.014 A 
ENDBRANCH   5  12
BRANCH   6  18
HETATM   18  O   UNK     0     -35.606 -10.148  21.739  0.00  0.00    -0.357 OA
HETATM   19  H   UNK     0     -36.570 -10.104  21.840  0.00  0.00     0.217 HD
ENDBRANCH   6  18
BRANCH  11  20
HETATM   20  O   UNK     0     -35.183  -5.633  20.274  0.00  0.00    -0.358 OA
HETATM   21  H   UNK     0     -35.625  -5.522  21.134  0.00  0.00     0.217 HD
ENDBRANCH  11  20
BRANCH  10  22
HETATM   22  O   UNK     0     -36.028  -7.483  22.146  0.00  0.00    -0.356 OA
HETATM   23  H   UNK     0     -35.367  -7.416  22.859  0.00  0.00     0.218 HD
ENDBRANCH  10  22
TORSDOF 4
ENDMDL
