5281697
  RxDock  02242110073D
librxdock.so/0.1.0
 25 27  0  0  0  0  0  0  0  0999 V2000
  -51.5451   -2.8787   14.5323 O   0  0  0  0  0  0
  -46.8674   -1.6340   14.6468 O   0  0  0  0  0  0
  -47.4733    0.6213   13.2345 O   0  0  0  0  0  0
  -50.0811    1.1329   12.4721 O   0  0  0  0  0  0
  -47.7733   -3.8172   15.7536 O   0  0  0  0  0  0
  -55.8312   -7.1871   16.2785 O   0  0  0  0  0  0
  -49.1873   -2.3016   14.6189 C   0  0  0  0  0  0
  -50.5010   -2.0406   14.2333 C   0  0  0  0  0  0
  -51.2779   -4.0392   15.2426 C   0  0  0  0  0  0
  -48.9014   -3.5271   15.3805 C   0  0  0  0  0  0
  -48.1633   -1.4115   14.2871 C   0  0  0  0  0  0
  -52.4720   -4.8642   15.5150 C   0  0  0  0  0  0
  -50.0582   -4.3970   15.6748 C   0  0  0  0  0  0
  -50.7991   -0.8843   13.5118 C   0  0  0  0  0  0
  -48.4643   -0.2559   13.5650 C   0  0  0  0  0  0
  -49.7792    0.0072   13.1782 C   0  0  0  0  0  0
  -53.7240   -4.4643   15.0414 C   0  0  0  0  0  0
  -52.3546   -6.0486   16.2462 C   0  0  0  0  0  0
  -54.8519   -5.2440   15.2980 C   0  0  0  0  0  0
  -53.4824   -6.8285   16.5026 C   0  0  0  0  0  0
  -54.7310   -6.4261   16.0286 C   0  0  0  0  0  0
  -46.2724   -1.4900   13.8955 H   0  0  0  0  0  0
  -46.7040    0.1126   12.9246 H   0  0  0  0  0  0
  -50.9353    0.9948   12.0271 H   0  0  0  0  0  0
  -56.6033   -6.7733   15.8558 H   0  0  0  0  0  0
  1  8  1  0  0  0
  1  9  1  0  0  0
  2 11  1  0  0  0
  2 22  1  0  0  0
  3 15  1  0  0  0
  3 23  1  0  0  0
  4 16  1  0  0  0
  4 24  1  0  0  0
  5 10  2  0  0  0
  6 21  1  0  0  0
  6 25  1  0  0  0
  7  8  2  0  0  0
  7 10  1  0  0  0
  7 11  1  0  0  0
  8 14  1  0  0  0
  9 12  1  0  0  0
  9 13  2  0  0  0
 10 13  1  0  0  0
 11 15  2  0  0  0
 12 17  2  0  0  0
 12 18  1  0  0  0
 14 16  2  0  0  0
 15 16  1  0  0  0
 17 19  1  0  0  0
 18 20  2  0  0  0
 19 21  2  0  0  0
 20 21  1  0  0  0
M  END
>  <CHROM.0>
59.08062091,-176.74173087,53.70108163

>  <CHROM.1>
133.01207121,43.38563754,-20.12873992,1.60038569,1.37869089,-50.81827893
-3.10501279,14.78871478,2.34212270,0.15197465,2.61400671

>  <Name>
5281697

>  <PUBCHEM_ATOM_DEF_STEREO_COUNT>
0

>  <PUBCHEM_ATOM_UDEF_STEREO_COUNT>
0

>  <PUBCHEM_BOND_DEF_STEREO_COUNT>
0

>  <PUBCHEM_BOND_UDEF_STEREO_COUNT>
0

>  <PUBCHEM_CACTVS_TAUTO_COUNT>
95

>  <PUBCHEM_COMPONENT_COUNT>
1

>  <PUBCHEM_COMPOUND_CID>
5281697

>  <PUBCHEM_CONFORMER_DIVERSEORDER>
1

>  <PUBCHEM_CONFORMER_ID>
005097A100000001

>  <PUBCHEM_CONFORMER_RMSD>
0.6

>  <PUBCHEM_COORDINATE_TYPE>
2
5
10

>  <PUBCHEM_EFFECTIVE_ROTOR_COUNT>
1

>  <PUBCHEM_FEATURE_SELFOVERLAP>
45.711

>  <PUBCHEM_HEAVY_ATOM_COUNT>
21

>  <PUBCHEM_ISOTOPIC_ATOM_COUNT>
0

>  <PUBCHEM_MMFF94_ENERGY>
63.223

>  <PUBCHEM_MMFF94_PARTIAL_CHARGES>
31
1 -0.16
10 0.47
11 0.08
12 0.03
13 -0.14
14 -0.15
15 0.08
16 0.08
17 -0.15
18 -0.15
19 -0.15
2 -0.53
20 -0.15
21 0.08
22 0.15
23 0.15
24 0.15
25 0.15
26 0.15
27 0.15
28 0.45
29 0.45
3 -0.53
30 0.45
31 0.45
4 -0.53
5 -0.57
6 -0.53
7 0.09
8 0.08
9 0.05

>  <PUBCHEM_PHARMACOPHORE_FEATURES>
9
1 1 acceptor
1 2 donor
1 3 donor
1 4 donor
1 5 acceptor
1 6 donor
6 1 7 8 9 10 13 rings
6 12 17 18 19 20 21 rings
6 7 8 11 14 15 16 rings

>  <PUBCHEM_SHAPE_FINGERPRINT>
10319926 262 18339625825081195930
10411042 1 17833271204996093459
10493431 412 18339369548524999705
10498660 4 18336542707697077949
10608611 8 18342173410280654128
10646746 165 18410573976930762244
11315181 36 17967813890389513380
11578080 2 13756702948478097673
11595378 159 17530951459133022432
12107183 9 17901657173352244522
12173636 292 18409726240512267175
12236239 1 17458623445659141570
12390115 104 18270976634926273329
12403259 415 18201996655522882608
12596602 18 16660369224522060160
12916748 109 18408890624269960579
13140716 1 17974859676664193147
13402501 40 18342737420969964016
13544592 145 18270128920288381310
14790565 3 17908994201191005865
15042514 8 18191873533892405547
15196674 1 18410856529976081566
15375358 24 18343866615200910982
18186145 218 18201727214817350440
200 152 16845855685150138058
20510252 161 18342459248711938305
20645477 56 18410293622761219728
20645477 70 17203057288073627646
21033648 29 18342165666017276744
21065198 57 18411699928693820962
21236236 1 18341332275253441647
21267235 1 18336835306807786307
21279426 13 18269558226339808350
21421861 104 17750502985271953402
22122407 14 15430327897065223269
221357 26 18131628967532776153
23175994 123 17275108344395955280
23227448 37 18341048618053264060
23402539 116 18412538846827169727
23402655 69 18131068208529289652
23557571 272 18342746251538334052
23559900 14 18271526391151403446
3004659 81 18335707088557568278
335352 9 18410856568245613789
350125 39 18409452522194264837
351380 180 18342174479584923540
3545911 37 18341896294727416792
4028521 119 18341892969874116496
4073 2 18114749334839713034
4214541 1 18411419514305071984
495365 180 17346303926350983370
5104073 3 18335985259569948114
633830 44 18200025115004324501
69090 78 18343580754709273606
77779 3 18411982455700122788
9709674 26 18342463659786276182

>  <PUBCHEM_SHAPE_MULTIPOLES>
396.95
11.7
2.35
0.66
9.05
0.35
0
-3.96
0.51
-2.32
-0.07
0.24
-0.01
0.68

>  <PUBCHEM_SHAPE_SELFOVERLAP>
891.042

>  <PUBCHEM_SHAPE_VOLUME>
208.7

>  <RI>
-8.58696e+08

>  <Rbt.Current_Directory>
/root/miniconda3/envs/rdock/share/rxdock-2013.1.1_148c5bd1-0/data/ligands/prepped_ligands/Scutellarein

>  <Rbt.Executable>
rbdock/0.1.0

>  <Rbt.Library>
librxdock.so/0.1.0

>  <Rbt.Parameter_File>
/root/miniconda3/envs/rdock/share/rxdock-2013.1.1_148c5bd1-0/data/scripts/dock.prm

>  <Rbt.Receptor>
def.prm

>  <SCORE>
-21.039

>  <SCORE.INTER>
-23.8874

>  <SCORE.INTER.CONST>
1

>  <SCORE.INTER.POLAR>
-3.42023

>  <SCORE.INTER.REPUL>
0.30687

>  <SCORE.INTER.ROT>
1

>  <SCORE.INTER.VDW>
-20.1929

>  <SCORE.INTER.norm>
-1.13749

>  <SCORE.INTRA>
3.85497

>  <SCORE.INTRA.DIHEDRAL>
4.17247

>  <SCORE.INTRA.DIHEDRAL.0>
1.23292

>  <SCORE.INTRA.POLAR>
0.398136

>  <SCORE.INTRA.POLAR.0>
-0.398136

>  <SCORE.INTRA.REPUL>
0

>  <SCORE.INTRA.REPUL.0>
0

>  <SCORE.INTRA.VDW>
0.415075

>  <SCORE.INTRA.VDW.0>
1.00302

>  <SCORE.INTRA.norm>
0.18357

>  <SCORE.RESTR>
0

>  <SCORE.RESTR.CAVITY>
0

>  <SCORE.RESTR.norm>
0

>  <SCORE.SYSTEM>
-1.00665

>  <SCORE.SYSTEM.CONST>
0

>  <SCORE.SYSTEM.DIHEDRAL>
0.15728

>  <SCORE.SYSTEM.VDW>
-1.08529

>  <SCORE.SYSTEM.norm>
-0.0479356

>  <SCORE.heavy>
21

>  <SCORE.norm>
-1.00186

$$$$
5281697
  RxDock  02242110073D
librxdock.so/0.1.0
 25 27  0  0  0  0  0  0  0  0999 V2000
  -52.6356   -4.5592   15.0397 O   0  0  0  0  0  0
  -52.5953   -8.4625   17.9043 O   0  0  0  0  0  0
  -54.7215   -9.4576   16.5125 O   0  0  0  0  0  0
  -55.8034   -8.0298   14.4066 O   0  0  0  0  0  0
  -50.8929   -6.5018   18.1684 O   0  0  0  0  0  0
  -49.8749    0.9803   13.7470 O   0  0  0  0  0  0
  -52.5713   -6.4954   16.5049 C   0  0  0  0  0  0
  -53.1189   -5.7783   15.4426 C   0  0  0  0  0  0
  -51.5603   -4.0155   15.7258 C   0  0  0  0  0  0
  -51.4247   -5.9260   17.2293 C   0  0  0  0  0  0
  -53.1043   -7.7335   16.8710 C   0  0  0  0  0  0
  -51.1176   -2.7059   15.2067 C   0  0  0  0  0  0
  -50.9436   -4.6112   16.7589 C   0  0  0  0  0  0
  -54.2056   -6.2969   14.7380 C   0  0  0  0  0  0
  -54.1915   -8.2496   16.1647 C   0  0  0  0  0  0
  -54.7410   -7.5331   15.1006 C   0  0  0  0  0  0
  -51.4302   -2.3276   13.8987 C   0  0  0  0  0  0
  -50.3855   -1.8391   16.0216 C   0  0  0  0  0  0
  -51.0127   -1.0901   13.4084 C   0  0  0  0  0  0
  -49.9682   -0.6016   15.5315 C   0  0  0  0  0  0
  -50.2817   -0.2272   14.2249 C   0  0  0  0  0  0
  -52.0654   -7.9028   18.4918 H   0  0  0  0  0  0
  -55.4217   -9.6806   15.8747 H   0  0  0  0  0  0
  -56.0620   -7.3759   13.7341 H   0  0  0  0  0  0
  -50.2346    1.1023   12.8516 H   0  0  0  0  0  0
  1  8  1  0  0  0
  1  9  1  0  0  0
  2 11  1  0  0  0
  2 22  1  0  0  0
  3 15  1  0  0  0
  3 23  1  0  0  0
  4 16  1  0  0  0
  4 24  1  0  0  0
  5 10  2  0  0  0
  6 21  1  0  0  0
  6 25  1  0  0  0
  7  8  2  0  0  0
  7 10  1  0  0  0
  7 11  1  0  0  0
  8 14  1  0  0  0
  9 12  1  0  0  0
  9 13  2  0  0  0
 10 13  1  0  0  0
 11 15  2  0  0  0
 12 17  2  0  0  0
 12 18  1  0  0  0
 14 16  2  0  0  0
 15 16  1  0  0  0
 17 19  1  0  0  0
 18 20  2  0  0  0
 19 21  2  0  0  0
 20 21  1  0  0  0
M  END
>  <CHROM.0>
60.76222370,176.62407316,-63.92246196

>  <CHROM.1>
18.93090910,-175.93000988,-2.20402281,4.17983158,-21.59761920,-52.26132597
-4.90255950,15.65605708,0.96994326,-0.71504827,-0.65968618

>  <Name>
5281697

>  <PUBCHEM_ATOM_DEF_STEREO_COUNT>
0

>  <PUBCHEM_ATOM_UDEF_STEREO_COUNT>
0

>  <PUBCHEM_BOND_DEF_STEREO_COUNT>
0

>  <PUBCHEM_BOND_UDEF_STEREO_COUNT>
0

>  <PUBCHEM_CACTVS_TAUTO_COUNT>
95

>  <PUBCHEM_COMPONENT_COUNT>
1

>  <PUBCHEM_COMPOUND_CID>
5281697

>  <PUBCHEM_CONFORMER_DIVERSEORDER>
1

>  <PUBCHEM_CONFORMER_ID>
005097A100000001

>  <PUBCHEM_CONFORMER_RMSD>
0.6

>  <PUBCHEM_COORDINATE_TYPE>
2
5
10

>  <PUBCHEM_EFFECTIVE_ROTOR_COUNT>
1

>  <PUBCHEM_FEATURE_SELFOVERLAP>
45.711

>  <PUBCHEM_HEAVY_ATOM_COUNT>
21

>  <PUBCHEM_ISOTOPIC_ATOM_COUNT>
0

>  <PUBCHEM_MMFF94_ENERGY>
63.223

>  <PUBCHEM_MMFF94_PARTIAL_CHARGES>
31
1 -0.16
10 0.47
11 0.08
12 0.03
13 -0.14
14 -0.15
15 0.08
16 0.08
17 -0.15
18 -0.15
19 -0.15
2 -0.53
20 -0.15
21 0.08
22 0.15
23 0.15
24 0.15
25 0.15
26 0.15
27 0.15
28 0.45
29 0.45
3 -0.53
30 0.45
31 0.45
4 -0.53
5 -0.57
6 -0.53
7 0.09
8 0.08
9 0.05

>  <PUBCHEM_PHARMACOPHORE_FEATURES>
9
1 1 acceptor
1 2 donor
1 3 donor
1 4 donor
1 5 acceptor
1 6 donor
6 1 7 8 9 10 13 rings
6 12 17 18 19 20 21 rings
6 7 8 11 14 15 16 rings

>  <PUBCHEM_SHAPE_FINGERPRINT>
10319926 262 18339625825081195930
10411042 1 17833271204996093459
10493431 412 18339369548524999705
10498660 4 18336542707697077949
10608611 8 18342173410280654128
10646746 165 18410573976930762244
11315181 36 17967813890389513380
11578080 2 13756702948478097673
11595378 159 17530951459133022432
12107183 9 17901657173352244522
12173636 292 18409726240512267175
12236239 1 17458623445659141570
12390115 104 18270976634926273329
12403259 415 18201996655522882608
12596602 18 16660369224522060160
12916748 109 18408890624269960579
13140716 1 17974859676664193147
13402501 40 18342737420969964016
13544592 145 18270128920288381310
14790565 3 17908994201191005865
15042514 8 18191873533892405547
15196674 1 18410856529976081566
15375358 24 18343866615200910982
18186145 218 18201727214817350440
200 152 16845855685150138058
20510252 161 18342459248711938305
20645477 56 18410293622761219728
20645477 70 17203057288073627646
21033648 29 18342165666017276744
21065198 57 18411699928693820962
21236236 1 18341332275253441647
21267235 1 18336835306807786307
21279426 13 18269558226339808350
21421861 104 17750502985271953402
22122407 14 15430327897065223269
221357 26 18131628967532776153
23175994 123 17275108344395955280
23227448 37 18341048618053264060
23402539 116 18412538846827169727
23402655 69 18131068208529289652
23557571 272 18342746251538334052
23559900 14 18271526391151403446
3004659 81 18335707088557568278
335352 9 18410856568245613789
350125 39 18409452522194264837
351380 180 18342174479584923540
3545911 37 18341896294727416792
4028521 119 18341892969874116496
4073 2 18114749334839713034
4214541 1 18411419514305071984
495365 180 17346303926350983370
5104073 3 18335985259569948114
633830 44 18200025115004324501
69090 78 18343580754709273606
77779 3 18411982455700122788
9709674 26 18342463659786276182

>  <PUBCHEM_SHAPE_MULTIPOLES>
396.95
11.7
2.35
0.66
9.05
0.35
0
-3.96
0.51
-2.32
-0.07
0.24
-0.01
0.68

>  <PUBCHEM_SHAPE_SELFOVERLAP>
891.042

>  <PUBCHEM_SHAPE_VOLUME>
208.7

>  <RI>
-8.58696e+08

>  <Rbt.Current_Directory>
/root/miniconda3/envs/rdock/share/rxdock-2013.1.1_148c5bd1-0/data/ligands/prepped_ligands/Scutellarein

>  <Rbt.Executable>
rbdock/0.1.0

>  <Rbt.Library>
librxdock.so/0.1.0

>  <Rbt.Parameter_File>
/root/miniconda3/envs/rdock/share/rxdock-2013.1.1_148c5bd1-0/data/scripts/dock.prm

>  <Rbt.Receptor>
def.prm

>  <SCORE>
-15.6694

>  <SCORE.INTER>
-15.775

>  <SCORE.INTER.CONST>
1

>  <SCORE.INTER.POLAR>
-0.938083

>  <SCORE.INTER.REPUL>
0

>  <SCORE.INTER.ROT>
1

>  <SCORE.INTER.VDW>
-18.9855

>  <SCORE.INTER.norm>
-0.751189

>  <SCORE.INTRA>
1.14393

>  <SCORE.INTRA.DIHEDRAL>
0.0100985

>  <SCORE.INTRA.DIHEDRAL.0>
1.23292

>  <SCORE.INTRA.POLAR>
0.214605

>  <SCORE.INTRA.POLAR.0>
-0.398136

>  <SCORE.INTRA.REPUL>
0

>  <SCORE.INTRA.REPUL.0>
0

>  <SCORE.INTRA.VDW>
0.409218

>  <SCORE.INTRA.VDW.0>
1.00302

>  <SCORE.INTRA.norm>
0.0544726

>  <SCORE.RESTR>
0

>  <SCORE.RESTR.CAVITY>
0

>  <SCORE.RESTR.norm>
0

>  <SCORE.SYSTEM>
-1.03833

>  <SCORE.SYSTEM.CONST>
0

>  <SCORE.SYSTEM.DIHEDRAL>
0.0981699

>  <SCORE.SYSTEM.VDW>
-1.08741

>  <SCORE.SYSTEM.norm>
-0.0494443

>  <SCORE.heavy>
21

>  <SCORE.norm>
-0.746161

$$$$
5281697
  RxDock  02242110073D
librxdock.so/0.1.0
 25 27  0  0  0  0  0  0  0  0999 V2000
  -49.2887   -4.9558   15.9580 O   0  0  0  0  0  0
  -51.7248   -8.6591   17.9057 O   0  0  0  0  0  0
  -49.3665   -9.6711   18.8344 O   0  0  0  0  0  0
  -46.9886   -8.3515   18.3369 O   0  0  0  0  0  0
  -52.8980   -6.7394   16.5825 O   0  0  0  0  0  0
  -49.7453    0.4050   12.6357 O   0  0  0  0  0  0
  -50.5590   -6.7915   16.9150 C   0  0  0  0  0  0
  -49.3586   -6.1286   16.6662 C   0  0  0  0  0  0
  -50.4643   -4.4123   15.4626 C   0  0  0  0  0  0
  -51.8092   -6.2132   16.3990 C   0  0  0  0  0  0
  -50.5704   -7.9832   17.6434 C   0  0  0  0  0  0
  -50.2757   -3.1487   14.7221 C   0  0  0  0  0  0
  -51.6805   -4.9519   15.6413 C   0  0  0  0  0  0
  -48.1590   -6.6550   17.1462 C   0  0  0  0  0  0
  -49.3690   -8.5077   18.1219 C   0  0  0  0  0  0
  -48.1660   -7.8452   17.8739 C   0  0  0  0  0  0
  -48.9892   -2.7092   14.4004 C   0  0  0  0  0  0
  -51.3830   -2.3880   14.3390 C   0  0  0  0  0  0
  -48.8111   -1.5159   13.7002 C   0  0  0  0  0  0
  -51.2049   -1.1949   13.6386 C   0  0  0  0  0  0
  -49.9189   -0.7588   13.3194 C   0  0  0  0  0  0
  -52.4650   -8.2819   17.4067 H   0  0  0  0  0  0
  -48.4481   -9.8789   19.0793 H   0  0  0  0  0  0
  -46.2810   -7.7156   18.1326 H   0  0  0  0  0  0
  -50.5796    0.6381   12.1933 H   0  0  0  0  0  0
  1  8  1  0  0  0
  1  9  1  0  0  0
  2 11  1  0  0  0
  2 22  1  0  0  0
  3 15  1  0  0  0
  3 23  1  0  0  0
  4 16  1  0  0  0
  4 24  1  0  0  0
  5 10  2  0  0  0
  6 21  1  0  0  0
  6 25  1  0  0  0
  7  8  2  0  0  0
  7 10  1  0  0  0
  7 11  1  0  0  0
  8 14  1  0  0  0
  9 12  1  0  0  0
  9 13  2  0  0  0
 10 13  1  0  0  0
 11 15  2  0  0  0
 12 17  2  0  0  0
 12 18  1  0  0  0
 14 16  2  0  0  0
 15 16  1  0  0  0
 17 19  1  0  0  0
 18 20  2  0  0  0
 19 21  2  0  0  0
 20 21  1  0  0  0
M  END
>  <CHROM.0>
-63.24345585,-178.97642097,-179.97384102

>  <CHROM.1>
9.18645382,179.86091555,4.90386725,160.75192140,9.54483161,-50.02379275,-5.26748693
16.05422092,-1.63493942,0.09357208,2.59253520

>  <Name>
5281697

>  <PUBCHEM_ATOM_DEF_STEREO_COUNT>
0

>  <PUBCHEM_ATOM_UDEF_STEREO_COUNT>
0

>  <PUBCHEM_BOND_DEF_STEREO_COUNT>
0

>  <PUBCHEM_BOND_UDEF_STEREO_COUNT>
0

>  <PUBCHEM_CACTVS_TAUTO_COUNT>
95

>  <PUBCHEM_COMPONENT_COUNT>
1

>  <PUBCHEM_COMPOUND_CID>
5281697

>  <PUBCHEM_CONFORMER_DIVERSEORDER>
1

>  <PUBCHEM_CONFORMER_ID>
005097A100000001

>  <PUBCHEM_CONFORMER_RMSD>
0.6

>  <PUBCHEM_COORDINATE_TYPE>
2
5
10

>  <PUBCHEM_EFFECTIVE_ROTOR_COUNT>
1

>  <PUBCHEM_FEATURE_SELFOVERLAP>
45.711

>  <PUBCHEM_HEAVY_ATOM_COUNT>
21

>  <PUBCHEM_ISOTOPIC_ATOM_COUNT>
0

>  <PUBCHEM_MMFF94_ENERGY>
63.223

>  <PUBCHEM_MMFF94_PARTIAL_CHARGES>
31
1 -0.16
10 0.47
11 0.08
12 0.03
13 -0.14
14 -0.15
15 0.08
16 0.08
17 -0.15
18 -0.15
19 -0.15
2 -0.53
20 -0.15
21 0.08
22 0.15
23 0.15
24 0.15
25 0.15
26 0.15
27 0.15
28 0.45
29 0.45
3 -0.53
30 0.45
31 0.45
4 -0.53
5 -0.57
6 -0.53
7 0.09
8 0.08
9 0.05

>  <PUBCHEM_PHARMACOPHORE_FEATURES>
9
1 1 acceptor
1 2 donor
1 3 donor
1 4 donor
1 5 acceptor
1 6 donor
6 1 7 8 9 10 13 rings
6 12 17 18 19 20 21 rings
6 7 8 11 14 15 16 rings

>  <PUBCHEM_SHAPE_FINGERPRINT>
10319926 262 18339625825081195930
10411042 1 17833271204996093459
10493431 412 18339369548524999705
10498660 4 18336542707697077949
10608611 8 18342173410280654128
10646746 165 18410573976930762244
11315181 36 17967813890389513380
11578080 2 13756702948478097673
11595378 159 17530951459133022432
12107183 9 17901657173352244522
12173636 292 18409726240512267175
12236239 1 17458623445659141570
12390115 104 18270976634926273329
12403259 415 18201996655522882608
12596602 18 16660369224522060160
12916748 109 18408890624269960579
13140716 1 17974859676664193147
13402501 40 18342737420969964016
13544592 145 18270128920288381310
14790565 3 17908994201191005865
15042514 8 18191873533892405547
15196674 1 18410856529976081566
15375358 24 18343866615200910982
18186145 218 18201727214817350440
200 152 16845855685150138058
20510252 161 18342459248711938305
20645477 56 18410293622761219728
20645477 70 17203057288073627646
21033648 29 18342165666017276744
21065198 57 18411699928693820962
21236236 1 18341332275253441647
21267235 1 18336835306807786307
21279426 13 18269558226339808350
21421861 104 17750502985271953402
22122407 14 15430327897065223269
221357 26 18131628967532776153
23175994 123 17275108344395955280
23227448 37 18341048618053264060
23402539 116 18412538846827169727
23402655 69 18131068208529289652
23557571 272 18342746251538334052
23559900 14 18271526391151403446
3004659 81 18335707088557568278
335352 9 18410856568245613789
350125 39 18409452522194264837
351380 180 18342174479584923540
3545911 37 18341896294727416792
4028521 119 18341892969874116496
4073 2 18114749334839713034
4214541 1 18411419514305071984
495365 180 17346303926350983370
5104073 3 18335985259569948114
633830 44 18200025115004324501
69090 78 18343580754709273606
77779 3 18411982455700122788
9709674 26 18342463659786276182

>  <PUBCHEM_SHAPE_MULTIPOLES>
396.95
11.7
2.35
0.66
9.05
0.35
0
-3.96
0.51
-2.32
-0.07
0.24
-0.01
0.68

>  <PUBCHEM_SHAPE_SELFOVERLAP>
891.042

>  <PUBCHEM_SHAPE_VOLUME>
208.7

>  <RI>
-8.58696e+08

>  <Rbt.Current_Directory>
/root/miniconda3/envs/rdock/share/rxdock-2013.1.1_148c5bd1-0/data/ligands/prepped_ligands/Scutellarein

>  <Rbt.Executable>
rbdock/0.1.0

>  <Rbt.Library>
librxdock.so/0.1.0

>  <Rbt.Parameter_File>
/root/miniconda3/envs/rdock/share/rxdock-2013.1.1_148c5bd1-0/data/scripts/dock.prm

>  <Rbt.Receptor>
def.prm

>  <SCORE>
-15.1985

>  <SCORE.INTER>
-15.2512

>  <SCORE.INTER.CONST>
1

>  <SCORE.INTER.POLAR>
-0.916515

>  <SCORE.INTER.REPUL>
0

>  <SCORE.INTER.ROT>
1

>  <SCORE.INTER.VDW>
-18.535

>  <SCORE.INTER.norm>
-0.726247

>  <SCORE.INTRA>
1.13854

>  <SCORE.INTRA.DIHEDRAL>
-0.435846

>  <SCORE.INTRA.DIHEDRAL.0>
1.23292

>  <SCORE.INTRA.POLAR>
0.21055

>  <SCORE.INTRA.POLAR.0>
-0.398136

>  <SCORE.INTRA.REPUL>
0

>  <SCORE.INTRA.REPUL.0>
0

>  <SCORE.INTRA.VDW>
0.640593

>  <SCORE.INTRA.VDW.0>
1.00302

>  <SCORE.INTRA.norm>
0.0542162

>  <SCORE.RESTR>
0

>  <SCORE.RESTR.CAVITY>
0

>  <SCORE.RESTR.norm>
0

>  <SCORE.SYSTEM>
-1.0859

>  <SCORE.SYSTEM.CONST>
0

>  <SCORE.SYSTEM.DIHEDRAL>
0.0336298

>  <SCORE.SYSTEM.POLAR>
-0.00205532

>  <SCORE.SYSTEM.VDW>
-1.09573

>  <SCORE.SYSTEM.norm>
-0.0517097

>  <SCORE.heavy>
21

>  <SCORE.norm>
-0.72374

$$$$
5281697
  RxDock  02242110073D
librxdock.so/0.1.0
 25 27  0  0  0  0  0  0  0  0999 V2000
  -47.5396    0.1985   13.9873 O   0  0  0  0  0  0
  -47.8351   -4.1506   16.0948 O   0  0  0  0  0  0
  -45.3379   -3.7752   17.1300 O   0  0  0  0  0  0
  -43.9455   -1.4447   16.6070 O   0  0  0  0  0  0
  -49.7588   -3.1557   14.6382 O   0  0  0  0  0  0
  -50.5081    4.4386   10.3562 O   0  0  0  0  0  0
  -47.7395   -1.9898   15.0222 C   0  0  0  0  0  0
  -47.0350   -0.8160   14.7608 C   0  0  0  0  0  0
  -48.8027    0.0436   13.4366 C   0  0  0  0  0  0
  -49.0835   -2.1538   14.4474 C   0  0  0  0  0  0
  -47.1760   -2.9898   15.8182 C   0  0  0  0  0  0
  -49.2502    1.1955   12.6283 C   0  0  0  0  0  0
  -49.5804   -1.0352   13.6207 C   0  0  0  0  0  0
  -45.7593   -0.6348   15.2955 C   0  0  0  0  0  0
  -45.8996   -2.8060   16.3514 C   0  0  0  0  0  0
  -45.1928   -1.6312   16.0908 C   0  0  0  0  0  0
  -50.5451    1.6977   12.7791 C   0  0  0  0  0  0
  -48.3803    1.7886   11.7103 C   0  0  0  0  0  0
  -50.9676    2.7864   12.0160 C   0  0  0  0  0  0
  -48.8027    2.8774   10.9474 C   0  0  0  0  0  0
  -50.0963    3.3762   11.1002 C   0  0  0  0  0  0
  -48.6183   -4.2439   15.5318 H   0  0  0  0  0  0
  -44.3749   -3.6372   17.1446 H   0  0  0  0  0  0
  -43.7526   -0.4910   16.6037 H   0  0  0  0  0  0
  -51.4804    4.4501   10.3343 H   0  0  0  0  0  0
  1  8  1  0  0  0
  1  9  1  0  0  0
  2 11  1  0  0  0
  2 22  1  0  0  0
  3 15  1  0  0  0
  3 23  1  0  0  0
  4 16  1  0  0  0
  4 24  1  0  0  0
  5 10  2  0  0  0
  6 21  1  0  0  0
  6 25  1  0  0  0
  7  8  2  0  0  0
  7 10  1  0  0  0
  7 11  1  0  0  0
  8 14  1  0  0  0
  9 12  1  0  0  0
  9 13  2  0  0  0
 10 13  1  0  0  0
 11 15  2  0  0  0
 12 17  2  0  0  0
 12 18  1  0  0  0
 14 16  2  0  0  0
 15 16  1  0  0  0
 17 19  1  0  0  0
 18 20  2  0  0  0
 19 21  2  0  0  0
 20 21  1  0  0  0
M  END
>  <CHROM.0>
-60.33659882,176.46459286,-58.00099101

>  <CHROM.1>
11.66992999,160.00543327,20.44862433,-20.64064134,-134.84753721,-48.01696533
-0.44066158,14.08811129,-2.08498025,0.35277749,2.63262439

>  <Name>
5281697

>  <PUBCHEM_ATOM_DEF_STEREO_COUNT>
0

>  <PUBCHEM_ATOM_UDEF_STEREO_COUNT>
0

>  <PUBCHEM_BOND_DEF_STEREO_COUNT>
0

>  <PUBCHEM_BOND_UDEF_STEREO_COUNT>
0

>  <PUBCHEM_CACTVS_TAUTO_COUNT>
95

>  <PUBCHEM_COMPONENT_COUNT>
1

>  <PUBCHEM_COMPOUND_CID>
5281697

>  <PUBCHEM_CONFORMER_DIVERSEORDER>
1

>  <PUBCHEM_CONFORMER_ID>
005097A100000001

>  <PUBCHEM_CONFORMER_RMSD>
0.6

>  <PUBCHEM_COORDINATE_TYPE>
2
5
10

>  <PUBCHEM_EFFECTIVE_ROTOR_COUNT>
1

>  <PUBCHEM_FEATURE_SELFOVERLAP>
45.711

>  <PUBCHEM_HEAVY_ATOM_COUNT>
21

>  <PUBCHEM_ISOTOPIC_ATOM_COUNT>
0

>  <PUBCHEM_MMFF94_ENERGY>
63.223

>  <PUBCHEM_MMFF94_PARTIAL_CHARGES>
31
1 -0.16
10 0.47
11 0.08
12 0.03
13 -0.14
14 -0.15
15 0.08
16 0.08
17 -0.15
18 -0.15
19 -0.15
2 -0.53
20 -0.15
21 0.08
22 0.15
23 0.15
24 0.15
25 0.15
26 0.15
27 0.15
28 0.45
29 0.45
3 -0.53
30 0.45
31 0.45
4 -0.53
5 -0.57
6 -0.53
7 0.09
8 0.08
9 0.05

>  <PUBCHEM_PHARMACOPHORE_FEATURES>
9
1 1 acceptor
1 2 donor
1 3 donor
1 4 donor
1 5 acceptor
1 6 donor
6 1 7 8 9 10 13 rings
6 12 17 18 19 20 21 rings
6 7 8 11 14 15 16 rings

>  <PUBCHEM_SHAPE_FINGERPRINT>
10319926 262 18339625825081195930
10411042 1 17833271204996093459
10493431 412 18339369548524999705
10498660 4 18336542707697077949
10608611 8 18342173410280654128
10646746 165 18410573976930762244
11315181 36 17967813890389513380
11578080 2 13756702948478097673
11595378 159 17530951459133022432
12107183 9 17901657173352244522
12173636 292 18409726240512267175
12236239 1 17458623445659141570
12390115 104 18270976634926273329
12403259 415 18201996655522882608
12596602 18 16660369224522060160
12916748 109 18408890624269960579
13140716 1 17974859676664193147
13402501 40 18342737420969964016
13544592 145 18270128920288381310
14790565 3 17908994201191005865
15042514 8 18191873533892405547
15196674 1 18410856529976081566
15375358 24 18343866615200910982
18186145 218 18201727214817350440
200 152 16845855685150138058
20510252 161 18342459248711938305
20645477 56 18410293622761219728
20645477 70 17203057288073627646
21033648 29 18342165666017276744
21065198 57 18411699928693820962
21236236 1 18341332275253441647
21267235 1 18336835306807786307
21279426 13 18269558226339808350
21421861 104 17750502985271953402
22122407 14 15430327897065223269
221357 26 18131628967532776153
23175994 123 17275108344395955280
23227448 37 18341048618053264060
23402539 116 18412538846827169727
23402655 69 18131068208529289652
23557571 272 18342746251538334052
23559900 14 18271526391151403446
3004659 81 18335707088557568278
335352 9 18410856568245613789
350125 39 18409452522194264837
351380 180 18342174479584923540
3545911 37 18341896294727416792
4028521 119 18341892969874116496
4073 2 18114749334839713034
4214541 1 18411419514305071984
495365 180 17346303926350983370
5104073 3 18335985259569948114
633830 44 18200025115004324501
69090 78 18343580754709273606
77779 3 18411982455700122788
9709674 26 18342463659786276182

>  <PUBCHEM_SHAPE_MULTIPOLES>
396.95
11.7
2.35
0.66
9.05
0.35
0
-3.96
0.51
-2.32
-0.07
0.24
-0.01
0.68

>  <PUBCHEM_SHAPE_SELFOVERLAP>
891.042

>  <PUBCHEM_SHAPE_VOLUME>
208.7

>  <RI>
-8.58696e+08

>  <Rbt.Current_Directory>
/root/miniconda3/envs/rdock/share/rxdock-2013.1.1_148c5bd1-0/data/ligands/prepped_ligands/Scutellarein

>  <Rbt.Executable>
rbdock/0.1.0

>  <Rbt.Library>
librxdock.so/0.1.0

>  <Rbt.Parameter_File>
/root/miniconda3/envs/rdock/share/rxdock-2013.1.1_148c5bd1-0/data/scripts/dock.prm

>  <Rbt.Receptor>
def.prm

>  <SCORE>
-13.1109

>  <SCORE.INTER>
-14.849

>  <SCORE.INTER.CONST>
1

>  <SCORE.INTER.POLAR>
-0.352322

>  <SCORE.INTER.REPUL>
0.000212675

>  <SCORE.INTER.ROT>
1

>  <SCORE.INTER.VDW>
-20.0522

>  <SCORE.INTER.norm>
-0.707098

>  <SCORE.INTRA>
2.27773

>  <SCORE.INTRA.DIHEDRAL>
3.07537

>  <SCORE.INTRA.DIHEDRAL.0>
1.23292

>  <SCORE.INTRA.POLAR>
0.305533

>  <SCORE.INTRA.POLAR.0>
-0.398136

>  <SCORE.INTRA.REPUL>
0

>  <SCORE.INTRA.REPUL.0>
0

>  <SCORE.INTRA.VDW>
-0.298774

>  <SCORE.INTRA.VDW.0>
1.00302

>  <SCORE.INTRA.norm>
0.108463

>  <SCORE.RESTR>
0.498204

>  <SCORE.RESTR.CAVITY>
0.498204

>  <SCORE.RESTR.norm>
0.023724

>  <SCORE.SYSTEM>
-1.0378

>  <SCORE.SYSTEM.CONST>
0

>  <SCORE.SYSTEM.DIHEDRAL>
0.0704568

>  <SCORE.SYSTEM.POLAR>
-0.00559794

>  <SCORE.SYSTEM.VDW>
-1.05399

>  <SCORE.SYSTEM.norm>
-0.0494188

>  <SCORE.heavy>
21

>  <SCORE.norm>
-0.624329

$$$$
5281697
  RxDock  02242110073D
librxdock.so/0.1.0
 25 27  0  0  0  0  0  0  0  0999 V2000
  -49.8495   -3.9287   15.4427 O   0  0  0  0  0  0
  -53.5521   -6.7850   16.6981 O   0  0  0  0  0  0
  -51.7859   -8.4753   17.9112 O   0  0  0  0  0  0
  -49.0793   -7.9117   17.8969 O   0  0  0  0  0  0
  -53.8716   -4.5716   15.3522 O   0  0  0  0  0  0
  -48.1521    1.4067   12.5045 O   0  0  0  0  0  0
  -51.7425   -5.3257   16.0467 C   0  0  0  0  0  0
  -50.3775   -5.0443   16.0416 C   0  0  0  0  0  0
  -50.7130   -3.0481   14.8090 C   0  0  0  0  0  0
  -52.6626   -4.3892   15.3834 C   0  0  0  0  0  0
  -52.2243   -6.4772   16.6734 C   0  0  0  0  0  0
  -50.0416   -1.8804   14.2039 C   0  0  0  0  0  0
  -52.0451   -3.2054   14.7518 C   0  0  0  0  0  0
  -49.4838   -5.9154   16.6653 C   0  0  0  0  0  0
  -51.3281   -7.3470   17.2960 C   0  0  0  0  0  0
  -49.9609   -7.0668   17.2920 C   0  0  0  0  0  0
  -50.7977   -0.8170   13.7048 C   0  0  0  0  0  0
  -48.6474   -1.8335   14.1293 C   0  0  0  0  0  0
  -50.1633    0.2865   13.1339 C   0  0  0  0  0  0
  -48.0131   -0.7299   13.5586 C   0  0  0  0  0  0
  -48.7711    0.3300   13.0609 C   0  0  0  0  0  0
  -54.0790   -6.0652   16.3193 H   0  0  0  0  0  0
  -52.7431   -8.5450   17.7513 H   0  0  0  0  0  0
  -49.5796   -8.6542   18.2778 H   0  0  0  0  0  0
  -47.4584    1.0934   11.8991 H   0  0  0  0  0  0
  1  8  1  0  0  0
  1  9  1  0  0  0
  2 11  1  0  0  0
  2 22  1  0  0  0
  3 15  1  0  0  0
  3 23  1  0  0  0
  4 16  1  0  0  0
  4 24  1  0  0  0
  5 10  2  0  0  0
  6 21  1  0  0  0
  6 25  1  0  0  0
  7  8  2  0  0  0
  7 10  1  0  0  0
  7 11  1  0  0  0
  8 14  1  0  0  0
  9 12  1  0  0  0
  9 13  2  0  0  0
 10 13  1  0  0  0
 11 15  2  0  0  0
 12 17  2  0  0  0
 12 18  1  0  0  0
 14 16  2  0  0  0
 15 16  1  0  0  0
 17 19  1  0  0  0
 18 20  2  0  0  0
 19 21  2  0  0  0
 20 21  1  0  0  0
M  END
>  <CHROM.0>
-59.98686055,179.73662779,-61.58719518

>  <CHROM.1>
-6.04294349,4.65391373,-179.96533101,-134.32592608,-170.67161553,-50.65476885
-4.01419812,15.39864086,-1.28282261,0.08253811,2.61233388

>  <Name>
5281697

>  <PUBCHEM_ATOM_DEF_STEREO_COUNT>
0

>  <PUBCHEM_ATOM_UDEF_STEREO_COUNT>
0

>  <PUBCHEM_BOND_DEF_STEREO_COUNT>
0

>  <PUBCHEM_BOND_UDEF_STEREO_COUNT>
0

>  <PUBCHEM_CACTVS_TAUTO_COUNT>
95

>  <PUBCHEM_COMPONENT_COUNT>
1

>  <PUBCHEM_COMPOUND_CID>
5281697

>  <PUBCHEM_CONFORMER_DIVERSEORDER>
1

>  <PUBCHEM_CONFORMER_ID>
005097A100000001

>  <PUBCHEM_CONFORMER_RMSD>
0.6

>  <PUBCHEM_COORDINATE_TYPE>
2
5
10

>  <PUBCHEM_EFFECTIVE_ROTOR_COUNT>
1

>  <PUBCHEM_FEATURE_SELFOVERLAP>
45.711

>  <PUBCHEM_HEAVY_ATOM_COUNT>
21

>  <PUBCHEM_ISOTOPIC_ATOM_COUNT>
0

>  <PUBCHEM_MMFF94_ENERGY>
63.223

>  <PUBCHEM_MMFF94_PARTIAL_CHARGES>
31
1 -0.16
10 0.47
11 0.08
12 0.03
13 -0.14
14 -0.15
15 0.08
16 0.08
17 -0.15
18 -0.15
19 -0.15
2 -0.53
20 -0.15
21 0.08
22 0.15
23 0.15
24 0.15
25 0.15
26 0.15
27 0.15
28 0.45
29 0.45
3 -0.53
30 0.45
31 0.45
4 -0.53
5 -0.57
6 -0.53
7 0.09
8 0.08
9 0.05

>  <PUBCHEM_PHARMACOPHORE_FEATURES>
9
1 1 acceptor
1 2 donor
1 3 donor
1 4 donor
1 5 acceptor
1 6 donor
6 1 7 8 9 10 13 rings
6 12 17 18 19 20 21 rings
6 7 8 11 14 15 16 rings

>  <PUBCHEM_SHAPE_FINGERPRINT>
10319926 262 18339625825081195930
10411042 1 17833271204996093459
10493431 412 18339369548524999705
10498660 4 18336542707697077949
10608611 8 18342173410280654128
10646746 165 18410573976930762244
11315181 36 17967813890389513380
11578080 2 13756702948478097673
11595378 159 17530951459133022432
12107183 9 17901657173352244522
12173636 292 18409726240512267175
12236239 1 17458623445659141570
12390115 104 18270976634926273329
12403259 415 18201996655522882608
12596602 18 16660369224522060160
12916748 109 18408890624269960579
13140716 1 17974859676664193147
13402501 40 18342737420969964016
13544592 145 18270128920288381310
14790565 3 17908994201191005865
15042514 8 18191873533892405547
15196674 1 18410856529976081566
15375358 24 18343866615200910982
18186145 218 18201727214817350440
200 152 16845855685150138058
20510252 161 18342459248711938305
20645477 56 18410293622761219728
20645477 70 17203057288073627646
21033648 29 18342165666017276744
21065198 57 18411699928693820962
21236236 1 18341332275253441647
21267235 1 18336835306807786307
21279426 13 18269558226339808350
21421861 104 17750502985271953402
22122407 14 15430327897065223269
221357 26 18131628967532776153
23175994 123 17275108344395955280
23227448 37 18341048618053264060
23402539 116 18412538846827169727
23402655 69 18131068208529289652
23557571 272 18342746251538334052
23559900 14 18271526391151403446
3004659 81 18335707088557568278
335352 9 18410856568245613789
350125 39 18409452522194264837
351380 180 18342174479584923540
3545911 37 18341896294727416792
4028521 119 18341892969874116496
4073 2 18114749334839713034
4214541 1 18411419514305071984
495365 180 17346303926350983370
5104073 3 18335985259569948114
633830 44 18200025115004324501
69090 78 18343580754709273606
77779 3 18411982455700122788
9709674 26 18342463659786276182

>  <PUBCHEM_SHAPE_MULTIPOLES>
396.95
11.7
2.35
0.66
9.05
0.35
0
-3.96
0.51
-2.32
-0.07
0.24
-0.01
0.68

>  <PUBCHEM_SHAPE_SELFOVERLAP>
891.042

>  <PUBCHEM_SHAPE_VOLUME>
208.7

>  <RI>
-8.58696e+08

>  <Rbt.Current_Directory>
/root/miniconda3/envs/rdock/share/rxdock-2013.1.1_148c5bd1-0/data/ligands/prepped_ligands/Scutellarein

>  <Rbt.Executable>
rbdock/0.1.0

>  <Rbt.Library>
librxdock.so/0.1.0

>  <Rbt.Parameter_File>
/root/miniconda3/envs/rdock/share/rxdock-2013.1.1_148c5bd1-0/data/scripts/dock.prm

>  <Rbt.Receptor>
def.prm

>  <SCORE>
-15.2138

>  <SCORE.INTER>
-14.906

>  <SCORE.INTER.CONST>
1

>  <SCORE.INTER.POLAR>
-0.746636

>  <SCORE.INTER.REPUL>
0.0635614

>  <SCORE.INTER.ROT>
1

>  <SCORE.INTER.VDW>
-19.0853

>  <SCORE.INTER.norm>
-0.70981

>  <SCORE.INTRA>
0.77045

>  <SCORE.INTRA.DIHEDRAL>
1.42254

>  <SCORE.INTRA.DIHEDRAL.0>
1.23292

>  <SCORE.INTRA.POLAR>
0.00649032

>  <SCORE.INTRA.POLAR.0>
-0.398136

>  <SCORE.INTRA.REPUL>
0

>  <SCORE.INTRA.REPUL.0>
0

>  <SCORE.INTRA.VDW>
0.0371119

>  <SCORE.INTRA.VDW.0>
1.00302

>  <SCORE.INTRA.norm>
0.0366881

>  <SCORE.RESTR>
0

>  <SCORE.RESTR.CAVITY>
0

>  <SCORE.RESTR.norm>
0

>  <SCORE.SYSTEM>
-1.07828

>  <SCORE.SYSTEM.CONST>
0

>  <SCORE.SYSTEM.DIHEDRAL>
0.00803896

>  <SCORE.SYSTEM.VDW>
-1.0823

>  <SCORE.SYSTEM.norm>
-0.0513467

>  <SCORE.heavy>
21

>  <SCORE.norm>
-0.724468

$$$$
5281697
  RxDock  02242110073D
librxdock.so/0.1.0
 25 27  0  0  0  0  0  0  0  0999 V2000
  -49.8690   -3.6670   15.5202 O   0  0  0  0  0  0
  -47.9414    0.2315   13.3919 O   0  0  0  0  0  0
  -45.5308   -0.4019   14.5038 O   0  0  0  0  0  0
  -45.2780   -2.6389   16.1087 O   0  0  0  0  0  0
  -50.4543   -0.4223   13.1268 O   0  0  0  0  0  0
  -55.1275   -7.0773   16.3568 O   0  0  0  0  0  0
  -48.9527   -1.6992   14.4302 C   0  0  0  0  0  0
  -48.8218   -2.8264   15.2395 C   0  0  0  0  0  0
  -51.1126   -3.3761   14.9801 C   0  0  0  0  0  0
  -50.2682   -1.3924   13.8481 C   0  0  0  0  0  0
  -47.8509   -0.8788   14.1777 C   0  0  0  0  0  0
  -52.1651   -4.3470   15.3404 C   0  0  0  0  0  0
  -51.3631   -2.3259   14.1821 C   0  0  0  0  0  0
  -47.5845   -3.1406   15.8023 C   0  0  0  0  0  0
  -46.6146   -1.1953   14.7424 C   0  0  0  0  0  0
  -46.4816   -2.3236   15.5528 C   0  0  0  0  0  0
  -51.8601   -5.4448   16.1488 C   0  0  0  0  0  0
  -53.4707   -4.1714   14.8754 C   0  0  0  0  0  0
  -52.8546   -6.3617   16.4898 C   0  0  0  0  0  0
  -54.4652   -5.0881   15.2166 C   0  0  0  0  0  0
  -54.1571   -6.1833   16.0237 C   0  0  0  0  0  0
  -48.8652    0.4200   13.1682 H   0  0  0  0  0  0
  -45.5418   -0.1412   13.5665 H   0  0  0  0  0  0
  -44.6124   -2.0148   15.7708 H   0  0  0  0  0  0
  -55.9544   -6.8258   15.9107 H   0  0  0  0  0  0
  1  8  1  0  0  0
  1  9  1  0  0  0
  2 11  1  0  0  0
  2 22  1  0  0  0
  3 15  1  0  0  0
  3 23  1  0  0  0
  4 16  1  0  0  0
  4 24  1  0  0  0
  5 10  2  0  0  0
  6 21  1  0  0  0
  6 25  1  0  0  0
  7  8  2  0  0  0
  7 10  1  0  0  0
  7 11  1  0  0  0
  8 14  1  0  0  0
  9 12  1  0  0  0
  9 13  2  0  0  0
 10 13  1  0  0  0
 11 15  2  0  0  0
 12 17  2  0  0  0
 12 18  1  0  0  0
 14 16  2  0  0  0
 15 16  1  0  0  0
 17 19  1  0  0  0
 18 20  2  0  0  0
 19 21  2  0  0  0
 20 21  1  0  0  0
M  END
>  <CHROM.0>
-65.44998807,60.44015036,-60.19571647

>  <CHROM.1>
8.40374897,-41.12533732,175.14061546,-177.03156648,-0.50717515,-50.03563571
-3.03446098,15.03455983,-2.58344893,-0.22664751,-0.59818323

>  <Name>
5281697

>  <PUBCHEM_ATOM_DEF_STEREO_COUNT>
0

>  <PUBCHEM_ATOM_UDEF_STEREO_COUNT>
0

>  <PUBCHEM_BOND_DEF_STEREO_COUNT>
0

>  <PUBCHEM_BOND_UDEF_STEREO_COUNT>
0

>  <PUBCHEM_CACTVS_TAUTO_COUNT>
95

>  <PUBCHEM_COMPONENT_COUNT>
1

>  <PUBCHEM_COMPOUND_CID>
5281697

>  <PUBCHEM_CONFORMER_DIVERSEORDER>
1

>  <PUBCHEM_CONFORMER_ID>
005097A100000001

>  <PUBCHEM_CONFORMER_RMSD>
0.6

>  <PUBCHEM_COORDINATE_TYPE>
2
5
10

>  <PUBCHEM_EFFECTIVE_ROTOR_COUNT>
1

>  <PUBCHEM_FEATURE_SELFOVERLAP>
45.711

>  <PUBCHEM_HEAVY_ATOM_COUNT>
21

>  <PUBCHEM_ISOTOPIC_ATOM_COUNT>
0

>  <PUBCHEM_MMFF94_ENERGY>
63.223

>  <PUBCHEM_MMFF94_PARTIAL_CHARGES>
31
1 -0.16
10 0.47
11 0.08
12 0.03
13 -0.14
14 -0.15
15 0.08
16 0.08
17 -0.15
18 -0.15
19 -0.15
2 -0.53
20 -0.15
21 0.08
22 0.15
23 0.15
24 0.15
25 0.15
26 0.15
27 0.15
28 0.45
29 0.45
3 -0.53
30 0.45
31 0.45
4 -0.53
5 -0.57
6 -0.53
7 0.09
8 0.08
9 0.05

>  <PUBCHEM_PHARMACOPHORE_FEATURES>
9
1 1 acceptor
1 2 donor
1 3 donor
1 4 donor
1 5 acceptor
1 6 donor
6 1 7 8 9 10 13 rings
6 12 17 18 19 20 21 rings
6 7 8 11 14 15 16 rings

>  <PUBCHEM_SHAPE_FINGERPRINT>
10319926 262 18339625825081195930
10411042 1 17833271204996093459
10493431 412 18339369548524999705
10498660 4 18336542707697077949
10608611 8 18342173410280654128
10646746 165 18410573976930762244
11315181 36 17967813890389513380
11578080 2 13756702948478097673
11595378 159 17530951459133022432
12107183 9 17901657173352244522
12173636 292 18409726240512267175
12236239 1 17458623445659141570
12390115 104 18270976634926273329
12403259 415 18201996655522882608
12596602 18 16660369224522060160
12916748 109 18408890624269960579
13140716 1 17974859676664193147
13402501 40 18342737420969964016
13544592 145 18270128920288381310
14790565 3 17908994201191005865
15042514 8 18191873533892405547
15196674 1 18410856529976081566
15375358 24 18343866615200910982
18186145 218 18201727214817350440
200 152 16845855685150138058
20510252 161 18342459248711938305
20645477 56 18410293622761219728
20645477 70 17203057288073627646
21033648 29 18342165666017276744
21065198 57 18411699928693820962
21236236 1 18341332275253441647
21267235 1 18336835306807786307
21279426 13 18269558226339808350
21421861 104 17750502985271953402
22122407 14 15430327897065223269
221357 26 18131628967532776153
23175994 123 17275108344395955280
23227448 37 18341048618053264060
23402539 116 18412538846827169727
23402655 69 18131068208529289652
23557571 272 18342746251538334052
23559900 14 18271526391151403446
3004659 81 18335707088557568278
335352 9 18410856568245613789
350125 39 18409452522194264837
351380 180 18342174479584923540
3545911 37 18341896294727416792
4028521 119 18341892969874116496
4073 2 18114749334839713034
4214541 1 18411419514305071984
495365 180 17346303926350983370
5104073 3 18335985259569948114
633830 44 18200025115004324501
69090 78 18343580754709273606
77779 3 18411982455700122788
9709674 26 18342463659786276182

>  <PUBCHEM_SHAPE_MULTIPOLES>
396.95
11.7
2.35
0.66
9.05
0.35
0
-3.96
0.51
-2.32
-0.07
0.24
-0.01
0.68

>  <PUBCHEM_SHAPE_SELFOVERLAP>
891.042

>  <PUBCHEM_SHAPE_VOLUME>
208.7

>  <RI>
-8.58696e+08

>  <Rbt.Current_Directory>
/root/miniconda3/envs/rdock/share/rxdock-2013.1.1_148c5bd1-0/data/ligands/prepped_ligands/Scutellarein

>  <Rbt.Executable>
rbdock/0.1.0

>  <Rbt.Library>
librxdock.so/0.1.0

>  <Rbt.Parameter_File>
/root/miniconda3/envs/rdock/share/rxdock-2013.1.1_148c5bd1-0/data/scripts/dock.prm

>  <Rbt.Receptor>
def.prm

>  <SCORE>
-14.0541

>  <SCORE.INTER>
-14.7532

>  <SCORE.INTER.CONST>
1

>  <SCORE.INTER.POLAR>
-0.812248

>  <SCORE.INTER.REPUL>
0.00164616

>  <SCORE.INTER.ROT>
1

>  <SCORE.INTER.VDW>
-18.3998

>  <SCORE.INTER.norm>
-0.702534

>  <SCORE.INTRA>
1.64136

>  <SCORE.INTRA.DIHEDRAL>
0.995825

>  <SCORE.INTRA.DIHEDRAL.0>
1.23292

>  <SCORE.INTRA.POLAR>
0.270891

>  <SCORE.INTRA.POLAR.0>
-0.398136

>  <SCORE.INTRA.REPUL>
0

>  <SCORE.INTRA.REPUL.0>
0

>  <SCORE.INTRA.VDW>
0.222422

>  <SCORE.INTRA.VDW.0>
1.00302

>  <SCORE.INTRA.norm>
0.0781601

>  <SCORE.RESTR>
0

>  <SCORE.RESTR.CAVITY>
0

>  <SCORE.RESTR.norm>
0

>  <SCORE.SYSTEM>
-0.942217

>  <SCORE.SYSTEM.CONST>
0

>  <SCORE.SYSTEM.DIHEDRAL>
0.0781731

>  <SCORE.SYSTEM.POLAR>
-0.000271833

>  <SCORE.SYSTEM.VDW>
-0.98038

>  <SCORE.SYSTEM.norm>
-0.0448675

>  <SCORE.heavy>
21

>  <SCORE.norm>
-0.669242

$$$$
5281697
  RxDock  02242110073D
librxdock.so/0.1.0
 25 27  0  0  0  0  0  0  0  0999 V2000
  -50.6892   -1.1612   13.5789 O   0  0  0  0  0  0
  -49.4616   -5.2068   15.9387 O   0  0  0  0  0  0
  -52.0958   -5.9170   16.0116 O   0  0  0  0  0  0
  -54.0157   -4.2768   14.8859 O   0  0  0  0  0  0
  -47.7066   -3.4331   15.1731 O   0  0  0  0  0  0
  -48.5594    4.1555   10.9004 O   0  0  0  0  0  0
  -50.0191   -3.1746   14.7607 C   0  0  0  0  0  0
  -50.9894   -2.3502   14.1938 C   0  0  0  0  0  0
  -49.3627   -0.7607   13.5271 C   0  0  0  0  0  0
  -48.6098   -2.7576   14.6996 C   0  0  0  0  0  0
  -50.3827   -4.3758   15.3737 C   0  0  0  0  0  0
  -49.1516    0.5286   12.8391 C   0  0  0  0  0  0
  -48.3391   -1.4694   14.0297 C   0  0  0  0  0  0
  -52.3330   -2.7235   14.2367 C   0  0  0  0  0  0
  -51.7275   -4.7465   15.4155 C   0  0  0  0  0  0
  -52.7004   -3.9223   14.8482 C   0  0  0  0  0  0
  -48.0135    0.7266   12.0535 C   0  0  0  0  0  0
  -50.0897    1.5555   12.9697 C   0  0  0  0  0  0
  -47.8144    1.9445   11.4028 C   0  0  0  0  0  0
  -49.8908    2.7731   12.3189 C   0  0  0  0  0  0
  -48.7531    2.9676   11.5356 C   0  0  0  0  0  0
  -49.7032   -6.1346   15.7975 H   0  0  0  0  0  0
  -51.3943   -6.1788   16.6330 H   0  0  0  0  0  0
  -54.3576   -4.0888   15.7772 H   0  0  0  0  0  0
  -49.1812    4.8107   11.2608 H   0  0  0  0  0  0
  1  8  1  0  0  0
  1  9  1  0  0  0
  2 11  1  0  0  0
  2 22  1  0  0  0
  3 15  1  0  0  0
  3 23  1  0  0  0
  4 16  1  0  0  0
  4 24  1  0  0  0
  5 10  2  0  0  0
  6 21  1  0  0  0
  6 25  1  0  0  0
  7  8  2  0  0  0
  7 10  1  0  0  0
  7 11  1  0  0  0
  8 14  1  0  0  0
  9 12  1  0  0  0
  9 13  2  0  0  0
 10 13  1  0  0  0
 11 15  2  0  0  0
 12 17  2  0  0  0
 12 18  1  0  0  0
 14 16  2  0  0  0
 15 16  1  0  0  0
 17 19  1  0  0  0
 18 20  2  0  0  0
 19 21  2  0  0  0
 20 21  1  0  0  0
M  END
>  <CHROM.0>
-66.39229272,-63.72808803,-64.70858368

>  <CHROM.1>
-143.37522787,21.86698439,-102.15056811,-166.81678015,-143.75521311,-50.06875080
-1.57863890,13.88352795,1.24338922,-0.03672194,-0.48034723

>  <Name>
5281697

>  <PUBCHEM_ATOM_DEF_STEREO_COUNT>
0

>  <PUBCHEM_ATOM_UDEF_STEREO_COUNT>
0

>  <PUBCHEM_BOND_DEF_STEREO_COUNT>
0

>  <PUBCHEM_BOND_UDEF_STEREO_COUNT>
0

>  <PUBCHEM_CACTVS_TAUTO_COUNT>
95

>  <PUBCHEM_COMPONENT_COUNT>
1

>  <PUBCHEM_COMPOUND_CID>
5281697

>  <PUBCHEM_CONFORMER_DIVERSEORDER>
1

>  <PUBCHEM_CONFORMER_ID>
005097A100000001

>  <PUBCHEM_CONFORMER_RMSD>
0.6

>  <PUBCHEM_COORDINATE_TYPE>
2
5
10

>  <PUBCHEM_EFFECTIVE_ROTOR_COUNT>
1

>  <PUBCHEM_FEATURE_SELFOVERLAP>
45.711

>  <PUBCHEM_HEAVY_ATOM_COUNT>
21

>  <PUBCHEM_ISOTOPIC_ATOM_COUNT>
0

>  <PUBCHEM_MMFF94_ENERGY>
63.223

>  <PUBCHEM_MMFF94_PARTIAL_CHARGES>
31
1 -0.16
10 0.47
11 0.08
12 0.03
13 -0.14
14 -0.15
15 0.08
16 0.08
17 -0.15
18 -0.15
19 -0.15
2 -0.53
20 -0.15
21 0.08
22 0.15
23 0.15
24 0.15
25 0.15
26 0.15
27 0.15
28 0.45
29 0.45
3 -0.53
30 0.45
31 0.45
4 -0.53
5 -0.57
6 -0.53
7 0.09
8 0.08
9 0.05

>  <PUBCHEM_PHARMACOPHORE_FEATURES>
9
1 1 acceptor
1 2 donor
1 3 donor
1 4 donor
1 5 acceptor
1 6 donor
6 1 7 8 9 10 13 rings
6 12 17 18 19 20 21 rings
6 7 8 11 14 15 16 rings

>  <PUBCHEM_SHAPE_FINGERPRINT>
10319926 262 18339625825081195930
10411042 1 17833271204996093459
10493431 412 18339369548524999705
10498660 4 18336542707697077949
10608611 8 18342173410280654128
10646746 165 18410573976930762244
11315181 36 17967813890389513380
11578080 2 13756702948478097673
11595378 159 17530951459133022432
12107183 9 17901657173352244522
12173636 292 18409726240512267175
12236239 1 17458623445659141570
12390115 104 18270976634926273329
12403259 415 18201996655522882608
12596602 18 16660369224522060160
12916748 109 18408890624269960579
13140716 1 17974859676664193147
13402501 40 18342737420969964016
13544592 145 18270128920288381310
14790565 3 17908994201191005865
15042514 8 18191873533892405547
15196674 1 18410856529976081566
15375358 24 18343866615200910982
18186145 218 18201727214817350440
200 152 16845855685150138058
20510252 161 18342459248711938305
20645477 56 18410293622761219728
20645477 70 17203057288073627646
21033648 29 18342165666017276744
21065198 57 18411699928693820962
21236236 1 18341332275253441647
21267235 1 18336835306807786307
21279426 13 18269558226339808350
21421861 104 17750502985271953402
22122407 14 15430327897065223269
221357 26 18131628967532776153
23175994 123 17275108344395955280
23227448 37 18341048618053264060
23402539 116 18412538846827169727
23402655 69 18131068208529289652
23557571 272 18342746251538334052
23559900 14 18271526391151403446
3004659 81 18335707088557568278
335352 9 18410856568245613789
350125 39 18409452522194264837
351380 180 18342174479584923540
3545911 37 18341896294727416792
4028521 119 18341892969874116496
4073 2 18114749334839713034
4214541 1 18411419514305071984
495365 180 17346303926350983370
5104073 3 18335985259569948114
633830 44 18200025115004324501
69090 78 18343580754709273606
77779 3 18411982455700122788
9709674 26 18342463659786276182

>  <PUBCHEM_SHAPE_MULTIPOLES>
396.95
11.7
2.35
0.66
9.05
0.35
0
-3.96
0.51
-2.32
-0.07
0.24
-0.01
0.68

>  <PUBCHEM_SHAPE_SELFOVERLAP>
891.042

>  <PUBCHEM_SHAPE_VOLUME>
208.7

>  <RI>
-8.58696e+08

>  <Rbt.Current_Directory>
/root/miniconda3/envs/rdock/share/rxdock-2013.1.1_148c5bd1-0/data/ligands/prepped_ligands/Scutellarein

>  <Rbt.Executable>
rbdock/0.1.0

>  <Rbt.Library>
librxdock.so/0.1.0

>  <Rbt.Parameter_File>
/root/miniconda3/envs/rdock/share/rxdock-2013.1.1_148c5bd1-0/data/scripts/dock.prm

>  <Rbt.Receptor>
def.prm

>  <SCORE>
-15.3703

>  <SCORE.INTER>
-19.2558

>  <SCORE.INTER.CONST>
1

>  <SCORE.INTER.POLAR>
-0.990712

>  <SCORE.INTER.REPUL>
0

>  <SCORE.INTER.ROT>
1

>  <SCORE.INTER.VDW>
-22.2873

>  <SCORE.INTER.norm>
-0.916941

>  <SCORE.INTRA>
4.73622

>  <SCORE.INTRA.DIHEDRAL>
7.6167

>  <SCORE.INTRA.DIHEDRAL.0>
1.23292

>  <SCORE.INTRA.POLAR>
0.398136

>  <SCORE.INTRA.POLAR.0>
-0.398136

>  <SCORE.INTRA.REPUL>
0

>  <SCORE.INTRA.REPUL.0>
0

>  <SCORE.INTRA.VDW>
-0.425793

>  <SCORE.INTRA.VDW.0>
1.00302

>  <SCORE.INTRA.norm>
0.225534

>  <SCORE.RESTR>
0.136904

>  <SCORE.RESTR.CAVITY>
0.136904

>  <SCORE.RESTR.norm>
0.00651926

>  <SCORE.SYSTEM>
-0.987652

>  <SCORE.SYSTEM.CONST>
0

>  <SCORE.SYSTEM.DIHEDRAL>
0.231312

>  <SCORE.SYSTEM.VDW>
-1.10331

>  <SCORE.SYSTEM.norm>
-0.047031

>  <SCORE.heavy>
21

>  <SCORE.norm>
-0.731918

$$$$
5281697
  RxDock  02242110073D
librxdock.so/0.1.0
 25 27  0  0  0  0  0  0  0  0999 V2000
  -49.7833   -3.8634   15.9827 O   0  0  0  0  0  0
  -46.1014   -1.0155   14.6502 O   0  0  0  0  0  0
  -47.8133    0.3824   13.0491 O   0  0  0  0  0  0
  -50.4823   -0.3244   12.9059 O   0  0  0  0  0  0
  -45.8209   -2.9854   16.3393 O   0  0  0  0  0  0
  -51.5343   -8.7807   19.5524 O   0  0  0  0  0  0
  -47.9018   -2.4648   15.3478 C   0  0  0  0  0  0
  -49.2479   -2.8183   15.2736 C   0  0  0  0  0  0
  -48.9450   -4.6036   16.8026 C   0  0  0  0  0  0
  -47.0113   -3.2419   16.2234 C   0  0  0  0  0  0
  -47.4114   -1.3896   14.6031 C   0  0  0  0  0  0
  -49.6243   -5.6991   17.5228 C   0  0  0  0  0  0
  -47.6349   -4.3577   16.9632 C   0  0  0  0  0  0
  -50.1140   -2.0963   14.4520 C   0  0  0  0  0  0
  -48.2799   -0.6695   13.7818 C   0  0  0  0  0  0
  -49.6281   -1.0219   13.7063 C   0  0  0  0  0  0
  -48.9764   -6.9224   17.7116 C   0  0  0  0  0  0
  -50.9170   -5.5167   18.0196 C   0  0  0  0  0  0
  -49.6178   -7.9572   18.3927 C   0  0  0  0  0  0
  -51.5583   -6.5513   18.7009 C   0  0  0  0  0  0
  -50.9087   -7.7715   18.8874 C   0  0  0  0  0  0
  -45.7470   -0.8909   13.7568 H   0  0  0  0  0  0
  -46.9527    0.1340   12.6693 H   0  0  0  0  0  0
  -49.9824    0.3905   12.4749 H   0  0  0  0  0  0
  -52.3181   -8.4226   20.0035 H   0  0  0  0  0  0
  1  8  1  0  0  0
  1  9  1  0  0  0
  2 11  1  0  0  0
  2 22  1  0  0  0
  3 15  1  0  0  0
  3 23  1  0  0  0
  4 16  1  0  0  0
  4 24  1  0  0  0
  5 10  2  0  0  0
  6 21  1  0  0  0
  6 25  1  0  0  0
  7  8  2  0  0  0
  7 10  1  0  0  0
  7 11  1  0  0  0
  8 14  1  0  0  0
  9 12  1  0  0  0
  9 13  2  0  0  0
 10 13  1  0  0  0
 11 15  2  0  0  0
 12 17  2  0  0  0
 12 18  1  0  0  0
 14 16  2  0  0  0
 15 16  1  0  0  0
 17 19  1  0  0  0
 18 20  2  0  0  0
 19 21  2  0  0  0
 20 21  1  0  0  0
M  END
>  <CHROM.0>
63.56541513,60.84359735,-63.91675509

>  <CHROM.1>
132.02584057,41.97339387,179.18095262,166.67070871,142.11028280,-48.99221140
-3.72266873,16.08236891,1.87029623,0.13751327,2.47591838

>  <Name>
5281697

>  <PUBCHEM_ATOM_DEF_STEREO_COUNT>
0

>  <PUBCHEM_ATOM_UDEF_STEREO_COUNT>
0

>  <PUBCHEM_BOND_DEF_STEREO_COUNT>
0

>  <PUBCHEM_BOND_UDEF_STEREO_COUNT>
0

>  <PUBCHEM_CACTVS_TAUTO_COUNT>
95

>  <PUBCHEM_COMPONENT_COUNT>
1

>  <PUBCHEM_COMPOUND_CID>
5281697

>  <PUBCHEM_CONFORMER_DIVERSEORDER>
1

>  <PUBCHEM_CONFORMER_ID>
005097A100000001

>  <PUBCHEM_CONFORMER_RMSD>
0.6

>  <PUBCHEM_COORDINATE_TYPE>
2
5
10

>  <PUBCHEM_EFFECTIVE_ROTOR_COUNT>
1

>  <PUBCHEM_FEATURE_SELFOVERLAP>
45.711

>  <PUBCHEM_HEAVY_ATOM_COUNT>
21

>  <PUBCHEM_ISOTOPIC_ATOM_COUNT>
0

>  <PUBCHEM_MMFF94_ENERGY>
63.223

>  <PUBCHEM_MMFF94_PARTIAL_CHARGES>
31
1 -0.16
10 0.47
11 0.08
12 0.03
13 -0.14
14 -0.15
15 0.08
16 0.08
17 -0.15
18 -0.15
19 -0.15
2 -0.53
20 -0.15
21 0.08
22 0.15
23 0.15
24 0.15
25 0.15
26 0.15
27 0.15
28 0.45
29 0.45
3 -0.53
30 0.45
31 0.45
4 -0.53
5 -0.57
6 -0.53
7 0.09
8 0.08
9 0.05

>  <PUBCHEM_PHARMACOPHORE_FEATURES>
9
1 1 acceptor
1 2 donor
1 3 donor
1 4 donor
1 5 acceptor
1 6 donor
6 1 7 8 9 10 13 rings
6 12 17 18 19 20 21 rings
6 7 8 11 14 15 16 rings

>  <PUBCHEM_SHAPE_FINGERPRINT>
10319926 262 18339625825081195930
10411042 1 17833271204996093459
10493431 412 18339369548524999705
10498660 4 18336542707697077949
10608611 8 18342173410280654128
10646746 165 18410573976930762244
11315181 36 17967813890389513380
11578080 2 13756702948478097673
11595378 159 17530951459133022432
12107183 9 17901657173352244522
12173636 292 18409726240512267175
12236239 1 17458623445659141570
12390115 104 18270976634926273329
12403259 415 18201996655522882608
12596602 18 16660369224522060160
12916748 109 18408890624269960579
13140716 1 17974859676664193147
13402501 40 18342737420969964016
13544592 145 18270128920288381310
14790565 3 17908994201191005865
15042514 8 18191873533892405547
15196674 1 18410856529976081566
15375358 24 18343866615200910982
18186145 218 18201727214817350440
200 152 16845855685150138058
20510252 161 18342459248711938305
20645477 56 18410293622761219728
20645477 70 17203057288073627646
21033648 29 18342165666017276744
21065198 57 18411699928693820962
21236236 1 18341332275253441647
21267235 1 18336835306807786307
21279426 13 18269558226339808350
21421861 104 17750502985271953402
22122407 14 15430327897065223269
221357 26 18131628967532776153
23175994 123 17275108344395955280
23227448 37 18341048618053264060
23402539 116 18412538846827169727
23402655 69 18131068208529289652
23557571 272 18342746251538334052
23559900 14 18271526391151403446
3004659 81 18335707088557568278
335352 9 18410856568245613789
350125 39 18409452522194264837
351380 180 18342174479584923540
3545911 37 18341896294727416792
4028521 119 18341892969874116496
4073 2 18114749334839713034
4214541 1 18411419514305071984
495365 180 17346303926350983370
5104073 3 18335985259569948114
633830 44 18200025115004324501
69090 78 18343580754709273606
77779 3 18411982455700122788
9709674 26 18342463659786276182

>  <PUBCHEM_SHAPE_MULTIPOLES>
396.95
11.7
2.35
0.66
9.05
0.35
0
-3.96
0.51
-2.32
-0.07
0.24
-0.01
0.68

>  <PUBCHEM_SHAPE_SELFOVERLAP>
891.042

>  <PUBCHEM_SHAPE_VOLUME>
208.7

>  <RI>
-8.58696e+08

>  <Rbt.Current_Directory>
/root/miniconda3/envs/rdock/share/rxdock-2013.1.1_148c5bd1-0/data/ligands/prepped_ligands/Scutellarein

>  <Rbt.Executable>
rbdock/0.1.0

>  <Rbt.Library>
librxdock.so/0.1.0

>  <Rbt.Parameter_File>
/root/miniconda3/envs/rdock/share/rxdock-2013.1.1_148c5bd1-0/data/scripts/dock.prm

>  <Rbt.Receptor>
def.prm

>  <SCORE>
-14.0017

>  <SCORE.INTER>
-16.2619

>  <SCORE.INTER.CONST>
1

>  <SCORE.INTER.POLAR>
-2.00598

>  <SCORE.INTER.REPUL>
0.0204658

>  <SCORE.INTER.ROT>
1

>  <SCORE.INTER.VDW>
-15.9439

>  <SCORE.INTER.norm>
-0.774377

>  <SCORE.INTRA>
3.22034

>  <SCORE.INTRA.DIHEDRAL>
5.66913

>  <SCORE.INTRA.DIHEDRAL.0>
1.23292

>  <SCORE.INTRA.POLAR>
0.263092

>  <SCORE.INTRA.POLAR.0>
-0.398136

>  <SCORE.INTRA.REPUL>
0

>  <SCORE.INTRA.REPUL.0>
0

>  <SCORE.INTRA.VDW>
-0.508737

>  <SCORE.INTRA.VDW.0>
1.00302

>  <SCORE.INTRA.norm>
0.15335

>  <SCORE.RESTR>
0

>  <SCORE.RESTR.CAVITY>
0

>  <SCORE.RESTR.norm>
0

>  <SCORE.SYSTEM>
-0.960134

>  <SCORE.SYSTEM.CONST>
0

>  <SCORE.SYSTEM.DIHEDRAL>
0.0732554

>  <SCORE.SYSTEM.VDW>
-0.996762

>  <SCORE.SYSTEM.norm>
-0.0457207

>  <SCORE.heavy>
21

>  <SCORE.norm>
-0.666749

$$$$
5281697
  RxDock  02242110073D
librxdock.so/0.1.0
 25 27  0  0  0  0  0  0  0  0999 V2000
  -51.6162   -4.7162   15.0527 O   0  0  0  0  0  0
  -52.3379   -8.4017   18.1087 O   0  0  0  0  0  0
  -54.5893   -9.0647   16.7158 O   0  0  0  0  0  0
  -55.3579   -7.5783   14.5149 O   0  0  0  0  0  0
  -50.3084   -6.7738   18.3169 O   0  0  0  0  0  0
  -47.8620    0.1445   13.5502 O   0  0  0  0  0  0
  -51.9314   -6.5500   16.6139 C   0  0  0  0  0  0
  -52.3214   -5.8030   15.5037 C   0  0  0  0  0  0
  -50.4699   -4.3421   15.7373 C   0  0  0  0  0  0
  -50.7109   -6.1618   17.3372 C   0  0  0  0  0  0
  -52.6883   -7.6485   17.0279 C   0  0  0  0  0  0
  -49.7861   -3.1653   15.1646 C   0  0  0  0  0  0
  -49.9891   -4.9843   16.8139 C   0  0  0  0  0  0
  -53.4740   -6.1514   14.7991 C   0  0  0  0  0  0
  -53.8410   -7.9943   16.3214 C   0  0  0  0  0  0
  -54.2330   -7.2476   15.2095 C   0  0  0  0  0  0
  -48.3943   -3.0630   15.2275 C   0  0  0  0  0  0
  -50.5280   -2.1499   14.5564 C   0  0  0  0  0  0
  -47.7482   -1.9516   14.6858 C   0  0  0  0  0  0
  -49.8820   -1.0386   14.0144 C   0  0  0  0  0  0
  -48.4921   -0.9395   14.0793 C   0  0  0  0  0  0
  -51.4978   -8.0963   18.4829 H   0  0  0  0  0  0
  -55.1567   -9.3330   15.9723 H   0  0  0  0  0  0
  -56.0686   -7.7619   15.1536 H   0  0  0  0  0  0
  -47.0315   -0.1453   13.1350 H   0  0  0  0  0  0
  1  8  1  0  0  0
  1  9  1  0  0  0
  2 11  1  0  0  0
  2 22  1  0  0  0
  3 15  1  0  0  0
  3 23  1  0  0  0
  4 16  1  0  0  0
  4 24  1  0  0  0
  5 10  2  0  0  0
  6 21  1  0  0  0
  6 25  1  0  0  0
  7  8  2  0  0  0
  7 10  1  0  0  0
  7 11  1  0  0  0
  8 14  1  0  0  0
  9 12  1  0  0  0
  9 13  2  0  0  0
 10 13  1  0  0  0
 11 15  2  0  0  0
 12 17  2  0  0  0
 12 18  1  0  0  0
 14 16  2  0  0  0
 15 16  1  0  0  0
 17 19  1  0  0  0
 18 20  2  0  0  0
 19 21  2  0  0  0
 20 21  1  0  0  0
M  END
>  <CHROM.0>
178.13788139,-63.36406370,62.84328078

>  <CHROM.1>
-3.27979317,-161.52340904,-134.96596588,37.73284434,-146.85377944,-51.31716428
-5.09468030,15.69940607,0.82346746,-0.52449617,-0.74478374

>  <Name>
5281697

>  <PUBCHEM_ATOM_DEF_STEREO_COUNT>
0

>  <PUBCHEM_ATOM_UDEF_STEREO_COUNT>
0

>  <PUBCHEM_BOND_DEF_STEREO_COUNT>
0

>  <PUBCHEM_BOND_UDEF_STEREO_COUNT>
0

>  <PUBCHEM_CACTVS_TAUTO_COUNT>
95

>  <PUBCHEM_COMPONENT_COUNT>
1

>  <PUBCHEM_COMPOUND_CID>
5281697

>  <PUBCHEM_CONFORMER_DIVERSEORDER>
1

>  <PUBCHEM_CONFORMER_ID>
005097A100000001

>  <PUBCHEM_CONFORMER_RMSD>
0.6

>  <PUBCHEM_COORDINATE_TYPE>
2
5
10

>  <PUBCHEM_EFFECTIVE_ROTOR_COUNT>
1

>  <PUBCHEM_FEATURE_SELFOVERLAP>
45.711

>  <PUBCHEM_HEAVY_ATOM_COUNT>
21

>  <PUBCHEM_ISOTOPIC_ATOM_COUNT>
0

>  <PUBCHEM_MMFF94_ENERGY>
63.223

>  <PUBCHEM_MMFF94_PARTIAL_CHARGES>
31
1 -0.16
10 0.47
11 0.08
12 0.03
13 -0.14
14 -0.15
15 0.08
16 0.08
17 -0.15
18 -0.15
19 -0.15
2 -0.53
20 -0.15
21 0.08
22 0.15
23 0.15
24 0.15
25 0.15
26 0.15
27 0.15
28 0.45
29 0.45
3 -0.53
30 0.45
31 0.45
4 -0.53
5 -0.57
6 -0.53
7 0.09
8 0.08
9 0.05

>  <PUBCHEM_PHARMACOPHORE_FEATURES>
9
1 1 acceptor
1 2 donor
1 3 donor
1 4 donor
1 5 acceptor
1 6 donor
6 1 7 8 9 10 13 rings
6 12 17 18 19 20 21 rings
6 7 8 11 14 15 16 rings

>  <PUBCHEM_SHAPE_FINGERPRINT>
10319926 262 18339625825081195930
10411042 1 17833271204996093459
10493431 412 18339369548524999705
10498660 4 18336542707697077949
10608611 8 18342173410280654128
10646746 165 18410573976930762244
11315181 36 17967813890389513380
11578080 2 13756702948478097673
11595378 159 17530951459133022432
12107183 9 17901657173352244522
12173636 292 18409726240512267175
12236239 1 17458623445659141570
12390115 104 18270976634926273329
12403259 415 18201996655522882608
12596602 18 16660369224522060160
12916748 109 18408890624269960579
13140716 1 17974859676664193147
13402501 40 18342737420969964016
13544592 145 18270128920288381310
14790565 3 17908994201191005865
15042514 8 18191873533892405547
15196674 1 18410856529976081566
15375358 24 18343866615200910982
18186145 218 18201727214817350440
200 152 16845855685150138058
20510252 161 18342459248711938305
20645477 56 18410293622761219728
20645477 70 17203057288073627646
21033648 29 18342165666017276744
21065198 57 18411699928693820962
21236236 1 18341332275253441647
21267235 1 18336835306807786307
21279426 13 18269558226339808350
21421861 104 17750502985271953402
22122407 14 15430327897065223269
221357 26 18131628967532776153
23175994 123 17275108344395955280
23227448 37 18341048618053264060
23402539 116 18412538846827169727
23402655 69 18131068208529289652
23557571 272 18342746251538334052
23559900 14 18271526391151403446
3004659 81 18335707088557568278
335352 9 18410856568245613789
350125 39 18409452522194264837
351380 180 18342174479584923540
3545911 37 18341896294727416792
4028521 119 18341892969874116496
4073 2 18114749334839713034
4214541 1 18411419514305071984
495365 180 17346303926350983370
5104073 3 18335985259569948114
633830 44 18200025115004324501
69090 78 18343580754709273606
77779 3 18411982455700122788
9709674 26 18342463659786276182

>  <PUBCHEM_SHAPE_MULTIPOLES>
396.95
11.7
2.35
0.66
9.05
0.35
0
-3.96
0.51
-2.32
-0.07
0.24
-0.01
0.68

>  <PUBCHEM_SHAPE_SELFOVERLAP>
891.042

>  <PUBCHEM_SHAPE_VOLUME>
208.7

>  <RI>
-8.58696e+08

>  <Rbt.Current_Directory>
/root/miniconda3/envs/rdock/share/rxdock-2013.1.1_148c5bd1-0/data/ligands/prepped_ligands/Scutellarein

>  <Rbt.Executable>
rbdock/0.1.0

>  <Rbt.Library>
librxdock.so/0.1.0

>  <Rbt.Parameter_File>
/root/miniconda3/envs/rdock/share/rxdock-2013.1.1_148c5bd1-0/data/scripts/dock.prm

>  <Rbt.Receptor>
def.prm

>  <SCORE>
-13.1827

>  <SCORE.INTER>
-15.5309

>  <SCORE.INTER.CONST>
1

>  <SCORE.INTER.POLAR>
-2.20035

>  <SCORE.INTER.REPUL>
0.00434997

>  <SCORE.INTER.ROT>
1

>  <SCORE.INTER.VDW>
-14.4715

>  <SCORE.INTER.norm>
-0.739566

>  <SCORE.INTRA>
3.36767

>  <SCORE.INTRA.DIHEDRAL>
4.86076

>  <SCORE.INTRA.DIHEDRAL.0>
1.23292

>  <SCORE.INTRA.POLAR>
0.398136

>  <SCORE.INTRA.POLAR.0>
-0.398136

>  <SCORE.INTRA.REPUL>
0

>  <SCORE.INTRA.REPUL.0>
0

>  <SCORE.INTRA.VDW>
-0.41637

>  <SCORE.INTRA.VDW.0>
1.00302

>  <SCORE.INTRA.norm>
0.160365

>  <SCORE.RESTR>
0

>  <SCORE.RESTR.CAVITY>
0

>  <SCORE.RESTR.norm>
0

>  <SCORE.SYSTEM>
-1.01951

>  <SCORE.SYSTEM.CONST>
0

>  <SCORE.SYSTEM.DIHEDRAL>
0.0834249

>  <SCORE.SYSTEM.POLAR>
-0.00724409

>  <SCORE.SYSTEM.VDW>
-1.03659

>  <SCORE.SYSTEM.norm>
-0.048548

>  <SCORE.heavy>
21

>  <SCORE.norm>
-0.627749

$$$$
5281697
  RxDock  02242110073D
librxdock.so/0.1.0
 25 27  0  0  0  0  0  0  0  0999 V2000
  -50.0037   -3.4691   15.6900 O   0  0  0  0  0  0
  -47.6392    0.1411   13.4949 O   0  0  0  0  0  0
  -45.3442   -0.6598   14.7358 O   0  0  0  0  0  0
  -45.3644   -2.8382   16.4380 O   0  0  0  0  0  0
  -50.1893   -0.2923   13.1459 O   0  0  0  0  0  0
  -55.5863   -6.3463   16.4282 O   0  0  0  0  0  0
  -48.8660   -1.6423   14.5639 C   0  0  0  0  0  0
  -48.8727   -2.7403   15.4223 C   0  0  0  0  0  0
  -51.1924   -3.0901   15.0848 C   0  0  0  0  0  0
  -50.1231   -1.2429   13.9128 C   0  0  0  0  0  0
  -47.6836   -0.9374   14.3274 C   0  0  0  0  0  0
  -52.3440   -3.9446   15.4369 C   0  0  0  0  0  0
  -51.3122   -2.0574   14.2353 C   0  0  0  0  0  0
  -47.6935   -3.1410   16.0509 C   0  0  0  0  0  0
  -46.5056   -1.3401   14.9580 C   0  0  0  0  0  0
  -46.5104   -2.4394   15.8177 C   0  0  0  0  0  0
  -52.5278   -4.3657   16.7562 C   0  0  0  0  0  0
  -53.2553   -4.3345   14.4525 C   0  0  0  0  0  0
  -53.6162   -5.1723   17.0890 C   0  0  0  0  0  0
  -54.3438   -5.1409   14.7854 C   0  0  0  0  0  0
  -54.5241   -5.5599   16.1036 C   0  0  0  0  0  0
  -46.9330    0.0403   12.8390 H   0  0  0  0  0  0
  -45.5567    0.1642   14.2639 H   0  0  0  0  0  0
  -45.5331   -3.6926   16.8720 H   0  0  0  0  0  0
  -55.9657   -6.7159   15.6125 H   0  0  0  0  0  0
  1  8  1  0  0  0
  1  9  1  0  0  0
  2 11  1  0  0  0
  2 22  1  0  0  0
  3 15  1  0  0  0
  3 23  1  0  0  0
  4 16  1  0  0  0
  4 24  1  0  0  0
  5 10  2  0  0  0
  6 21  1  0  0  0
  6 25  1  0  0  0
  7  8  2  0  0  0
  7 10  1  0  0  0
  7 11  1  0  0  0
  8 14  1  0  0  0
  9 12  1  0  0  0
  9 13  2  0  0  0
 10 13  1  0  0  0
 11 15  2  0  0  0
 12 17  2  0  0  0
 12 18  1  0  0  0
 14 16  2  0  0  0
 15 16  1  0  0  0
 17 19  1  0  0  0
 18 20  2  0  0  0
 19 21  2  0  0  0
 20 21  1  0  0  0
M  END
>  <CHROM.0>
-53.20072799,-57.28081820,-61.97796438

>  <CHROM.1>
-128.26092896,11.07433958,9.16477267,-164.63932140,42.14699236,-50.08865585
-2.85219890,15.17435833,-2.69561625,-0.24096949,-0.72592410

>  <Name>
5281697

>  <PUBCHEM_ATOM_DEF_STEREO_COUNT>
0

>  <PUBCHEM_ATOM_UDEF_STEREO_COUNT>
0

>  <PUBCHEM_BOND_DEF_STEREO_COUNT>
0

>  <PUBCHEM_BOND_UDEF_STEREO_COUNT>
0

>  <PUBCHEM_CACTVS_TAUTO_COUNT>
95

>  <PUBCHEM_COMPONENT_COUNT>
1

>  <PUBCHEM_COMPOUND_CID>
5281697

>  <PUBCHEM_CONFORMER_DIVERSEORDER>
1

>  <PUBCHEM_CONFORMER_ID>
005097A100000001

>  <PUBCHEM_CONFORMER_RMSD>
0.6

>  <PUBCHEM_COORDINATE_TYPE>
2
5
10

>  <PUBCHEM_EFFECTIVE_ROTOR_COUNT>
1

>  <PUBCHEM_FEATURE_SELFOVERLAP>
45.711

>  <PUBCHEM_HEAVY_ATOM_COUNT>
21

>  <PUBCHEM_ISOTOPIC_ATOM_COUNT>
0

>  <PUBCHEM_MMFF94_ENERGY>
63.223

>  <PUBCHEM_MMFF94_PARTIAL_CHARGES>
31
1 -0.16
10 0.47
11 0.08
12 0.03
13 -0.14
14 -0.15
15 0.08
16 0.08
17 -0.15
18 -0.15
19 -0.15
2 -0.53
20 -0.15
21 0.08
22 0.15
23 0.15
24 0.15
25 0.15
26 0.15
27 0.15
28 0.45
29 0.45
3 -0.53
30 0.45
31 0.45
4 -0.53
5 -0.57
6 -0.53
7 0.09
8 0.08
9 0.05

>  <PUBCHEM_PHARMACOPHORE_FEATURES>
9
1 1 acceptor
1 2 donor
1 3 donor
1 4 donor
1 5 acceptor
1 6 donor
6 1 7 8 9 10 13 rings
6 12 17 18 19 20 21 rings
6 7 8 11 14 15 16 rings

>  <PUBCHEM_SHAPE_FINGERPRINT>
10319926 262 18339625825081195930
10411042 1 17833271204996093459
10493431 412 18339369548524999705
10498660 4 18336542707697077949
10608611 8 18342173410280654128
10646746 165 18410573976930762244
11315181 36 17967813890389513380
11578080 2 13756702948478097673
11595378 159 17530951459133022432
12107183 9 17901657173352244522
12173636 292 18409726240512267175
12236239 1 17458623445659141570
12390115 104 18270976634926273329
12403259 415 18201996655522882608
12596602 18 16660369224522060160
12916748 109 18408890624269960579
13140716 1 17974859676664193147
13402501 40 18342737420969964016
13544592 145 18270128920288381310
14790565 3 17908994201191005865
15042514 8 18191873533892405547
15196674 1 18410856529976081566
15375358 24 18343866615200910982
18186145 218 18201727214817350440
200 152 16845855685150138058
20510252 161 18342459248711938305
20645477 56 18410293622761219728
20645477 70 17203057288073627646
21033648 29 18342165666017276744
21065198 57 18411699928693820962
21236236 1 18341332275253441647
21267235 1 18336835306807786307
21279426 13 18269558226339808350
21421861 104 17750502985271953402
22122407 14 15430327897065223269
221357 26 18131628967532776153
23175994 123 17275108344395955280
23227448 37 18341048618053264060
23402539 116 18412538846827169727
23402655 69 18131068208529289652
23557571 272 18342746251538334052
23559900 14 18271526391151403446
3004659 81 18335707088557568278
335352 9 18410856568245613789
350125 39 18409452522194264837
351380 180 18342174479584923540
3545911 37 18341896294727416792
4028521 119 18341892969874116496
4073 2 18114749334839713034
4214541 1 18411419514305071984
495365 180 17346303926350983370
5104073 3 18335985259569948114
633830 44 18200025115004324501
69090 78 18343580754709273606
77779 3 18411982455700122788
9709674 26 18342463659786276182

>  <PUBCHEM_SHAPE_MULTIPOLES>
396.95
11.7
2.35
0.66
9.05
0.35
0
-3.96
0.51
-2.32
-0.07
0.24
-0.01
0.68

>  <PUBCHEM_SHAPE_SELFOVERLAP>
891.042

>  <PUBCHEM_SHAPE_VOLUME>
208.7

>  <RI>
-8.58696e+08

>  <Rbt.Current_Directory>
/root/miniconda3/envs/rdock/share/rxdock-2013.1.1_148c5bd1-0/data/ligands/prepped_ligands/Scutellarein

>  <Rbt.Executable>
rbdock/0.1.0

>  <Rbt.Library>
librxdock.so/0.1.0

>  <Rbt.Parameter_File>
/root/miniconda3/envs/rdock/share/rxdock-2013.1.1_148c5bd1-0/data/scripts/dock.prm

>  <Rbt.Receptor>
def.prm

>  <SCORE>
-17.635

>  <SCORE.INTER>
-20.0454

>  <SCORE.INTER.CONST>
1

>  <SCORE.INTER.POLAR>
-2.6038

>  <SCORE.INTER.REPUL>
0

>  <SCORE.INTER.ROT>
1

>  <SCORE.INTER.VDW>
-17.5925

>  <SCORE.INTER.norm>
-0.954543

>  <SCORE.INTRA>
3.35352

>  <SCORE.INTRA.DIHEDRAL>
4.48243

>  <SCORE.INTRA.DIHEDRAL.0>
1.23292

>  <SCORE.INTRA.POLAR>
0.398136

>  <SCORE.INTRA.POLAR.0>
-0.398136

>  <SCORE.INTRA.REPUL>
0

>  <SCORE.INTRA.REPUL.0>
0

>  <SCORE.INTRA.VDW>
-0.241354

>  <SCORE.INTRA.VDW.0>
1.00302

>  <SCORE.INTRA.norm>
0.159692

>  <SCORE.RESTR>
1.92765e-05

>  <SCORE.RESTR.CAVITY>
1.92765e-05

>  <SCORE.RESTR.norm>
9.17927e-07

>  <SCORE.SYSTEM>
-0.943135

>  <SCORE.SYSTEM.CONST>
0

>  <SCORE.SYSTEM.DIHEDRAL>
0.155824

>  <SCORE.SYSTEM.VDW>
-1.02105

>  <SCORE.SYSTEM.norm>
-0.0449112

>  <SCORE.heavy>
21

>  <SCORE.norm>
-0.839762

$$$$
