5281697
  RxDock  02242101393D
librxdock.so/0.1.0
 25 27  0  0  0  0  0  0  0  0999 V2000
  -49.9983   -3.4211   15.6141 O   0  0  0  0  0  0
  -47.6555    0.1680   13.3619 O   0  0  0  0  0  0
  -45.3382   -0.6539   14.5465 O   0  0  0  0  0  0
  -45.3366   -2.8324   16.2488 O   0  0  0  0  0  0
  -50.2171   -0.2422   13.0753 O   0  0  0  0  0  0
  -55.5871   -6.2478   16.4881 O   0  0  0  0  0  0
  -48.8719   -1.6045   14.4605 C   0  0  0  0  0  0
  -48.8676   -2.7026   15.3189 C   0  0  0  0  0  0
  -51.1979   -3.0313   15.0381 C   0  0  0  0  0  0
  -50.1408   -1.1936   13.8404 C   0  0  0  0  0  0
  -47.6893   -0.9102   14.1954 C   0  0  0  0  0  0
  -52.3483   -3.8754   15.4182 C   0  0  0  0  0  0
  -51.3290   -1.9973   14.1918 C   0  0  0  0  0  0
  -47.6770   -3.1140   15.9186 C   0  0  0  0  0  0
  -46.4999   -1.3237   14.7970 C   0  0  0  0  0  0
  -46.4937   -2.4231   15.6566 C   0  0  0  0  0  0
  -52.5489   -4.2273   16.7552 C   0  0  0  0  0  0
  -53.2416   -4.3246   14.4427 C   0  0  0  0  0  0
  -53.6362   -5.0241   17.1144 C   0  0  0  0  0  0
  -54.3289   -5.1212   14.8019 C   0  0  0  0  0  0
  -54.5261   -5.4710   16.1377 C   0  0  0  0  0  0
  -46.8508    0.1600   12.8219 H   0  0  0  0  0  0
  -44.6040   -1.1538   14.9437 H   0  0  0  0  0  0
  -45.5085   -2.9636   17.1974 H   0  0  0  0  0  0
  -56.0935   -6.4693   15.6878 H   0  0  0  0  0  0
  1  8  1  0  0  0
  1  9  1  0  0  0
  2 11  1  0  0  0
  2 22  1  0  0  0
  3 15  1  0  0  0
  3 23  1  0  0  0
  4 16  1  0  0  0
  4 24  1  0  0  0
  5 10  2  0  0  0
  6 21  1  0  0  0
  6 25  1  0  0  0
  7  8  2  0  0  0
  7 10  1  0  0  0
  7 11  1  0  0  0
  8 14  1  0  0  0
  9 12  1  0  0  0
  9 13  2  0  0  0
 10 13  1  0  0  0
 11 15  2  0  0  0
 12 17  2  0  0  0
 12 18  1  0  0  0
 14 16  2  0  0  0
 15 16  1  0  0  0
 17 19  1  0  0  0
 18 20  2  0  0  0
 19 21  2  0  0  0
 20 21  1  0  0  0
M  END
>  <CHROM.0>
-64.79328876,-56.77975283,-69.44848732

>  <CHROM.1>
-141.06286910,-172.02562885,-48.01986531,-179.66608886,46.06720773,-50.08683961
-2.80463548,15.10600605,-2.69087897,-0.21967744,-0.72960543

>  <Name>
5281697

>  <PUBCHEM_ATOM_DEF_STEREO_COUNT>
0

>  <PUBCHEM_ATOM_UDEF_STEREO_COUNT>
0

>  <PUBCHEM_BOND_DEF_STEREO_COUNT>
0

>  <PUBCHEM_BOND_UDEF_STEREO_COUNT>
0

>  <PUBCHEM_CACTVS_TAUTO_COUNT>
95

>  <PUBCHEM_COMPONENT_COUNT>
1

>  <PUBCHEM_COMPOUND_CID>
5281697

>  <PUBCHEM_CONFORMER_DIVERSEORDER>
1

>  <PUBCHEM_CONFORMER_ID>
005097A100000001

>  <PUBCHEM_CONFORMER_RMSD>
0.6

>  <PUBCHEM_COORDINATE_TYPE>
2
5
10

>  <PUBCHEM_EFFECTIVE_ROTOR_COUNT>
1

>  <PUBCHEM_FEATURE_SELFOVERLAP>
45.711

>  <PUBCHEM_HEAVY_ATOM_COUNT>
21

>  <PUBCHEM_ISOTOPIC_ATOM_COUNT>
0

>  <PUBCHEM_MMFF94_ENERGY>
63.223

>  <PUBCHEM_MMFF94_PARTIAL_CHARGES>
31
1 -0.16
10 0.47
11 0.08
12 0.03
13 -0.14
14 -0.15
15 0.08
16 0.08
17 -0.15
18 -0.15
19 -0.15
2 -0.53
20 -0.15
21 0.08
22 0.15
23 0.15
24 0.15
25 0.15
26 0.15
27 0.15
28 0.45
29 0.45
3 -0.53
30 0.45
31 0.45
4 -0.53
5 -0.57
6 -0.53
7 0.09
8 0.08
9 0.05

>  <PUBCHEM_PHARMACOPHORE_FEATURES>
9
1 1 acceptor
1 2 donor
1 3 donor
1 4 donor
1 5 acceptor
1 6 donor
6 1 7 8 9 10 13 rings
6 12 17 18 19 20 21 rings
6 7 8 11 14 15 16 rings

>  <PUBCHEM_SHAPE_FINGERPRINT>
10319926 262 18339625825081195930
10411042 1 17833271204996093459
10493431 412 18339369548524999705
10498660 4 18336542707697077949
10608611 8 18342173410280654128
10646746 165 18410573976930762244
11315181 36 17967813890389513380
11578080 2 13756702948478097673
11595378 159 17530951459133022432
12107183 9 17901657173352244522
12173636 292 18409726240512267175
12236239 1 17458623445659141570
12390115 104 18270976634926273329
12403259 415 18201996655522882608
12596602 18 16660369224522060160
12916748 109 18408890624269960579
13140716 1 17974859676664193147
13402501 40 18342737420969964016
13544592 145 18270128920288381310
14790565 3 17908994201191005865
15042514 8 18191873533892405547
15196674 1 18410856529976081566
15375358 24 18343866615200910982
18186145 218 18201727214817350440
200 152 16845855685150138058
20510252 161 18342459248711938305
20645477 56 18410293622761219728
20645477 70 17203057288073627646
21033648 29 18342165666017276744
21065198 57 18411699928693820962
21236236 1 18341332275253441647
21267235 1 18336835306807786307
21279426 13 18269558226339808350
21421861 104 17750502985271953402
22122407 14 15430327897065223269
221357 26 18131628967532776153
23175994 123 17275108344395955280
23227448 37 18341048618053264060
23402539 116 18412538846827169727
23402655 69 18131068208529289652
23557571 272 18342746251538334052
23559900 14 18271526391151403446
3004659 81 18335707088557568278
335352 9 18410856568245613789
350125 39 18409452522194264837
351380 180 18342174479584923540
3545911 37 18341896294727416792
4028521 119 18341892969874116496
4073 2 18114749334839713034
4214541 1 18411419514305071984
495365 180 17346303926350983370
5104073 3 18335985259569948114
633830 44 18200025115004324501
69090 78 18343580754709273606
77779 3 18411982455700122788
9709674 26 18342463659786276182

>  <PUBCHEM_SHAPE_MULTIPOLES>
396.95
11.7
2.35
0.66
9.05
0.35
0
-3.96
0.51
-2.32
-0.07
0.24
-0.01
0.68

>  <PUBCHEM_SHAPE_SELFOVERLAP>
891.042

>  <PUBCHEM_SHAPE_VOLUME>
208.7

>  <RI>
-5.66369e+08

>  <Rbt.Current_Directory>
/root/miniconda3/envs/rdock/share/rxdock-2013.1.1_148c5bd1-0/data/ligands/prepped_ligands/Scutellarein

>  <Rbt.Executable>
rbdock/0.1.0

>  <Rbt.Library>
librxdock.so/0.1.0

>  <Rbt.Parameter_File>
/root/miniconda3/envs/rdock/share/rxdock-2013.1.1_148c5bd1-0/data/scripts/dock.prm

>  <Rbt.Receptor>
def.prm

>  <SCORE>
-16.7142

>  <SCORE.INTER>
-19.0111

>  <SCORE.INTER.CONST>
1

>  <SCORE.INTER.POLAR>
-2.45875

>  <SCORE.INTER.REPUL>
0.00688277

>  <SCORE.INTER.ROT>
1

>  <SCORE.INTER.VDW>
-17.0858

>  <SCORE.INTER.norm>
-0.905292

>  <SCORE.INTRA>
3.12241

>  <SCORE.INTRA.DIHEDRAL>
5.85834

>  <SCORE.INTRA.DIHEDRAL.0>
1.23292

>  <SCORE.INTRA.POLAR>
0.277915

>  <SCORE.INTRA.POLAR.0>
-0.398136

>  <SCORE.INTRA.REPUL>
0

>  <SCORE.INTRA.REPUL.0>
0

>  <SCORE.INTRA.VDW>
-0.751674

>  <SCORE.INTRA.VDW.0>
1.00302

>  <SCORE.INTRA.norm>
0.148686

>  <SCORE.RESTR>
0.00396031

>  <SCORE.RESTR.CAVITY>
0.00396031

>  <SCORE.RESTR.norm>
0.000188586

>  <SCORE.SYSTEM>
-0.82944

>  <SCORE.SYSTEM.CONST>
0

>  <SCORE.SYSTEM.DIHEDRAL>
0.334351

>  <SCORE.SYSTEM.VDW>
-0.996615

>  <SCORE.SYSTEM.norm>
-0.0394971

>  <SCORE.heavy>
21

>  <SCORE.norm>
-0.795915

$$$$
5281697
  RxDock  02242101393D
librxdock.so/0.1.0
 25 27  0  0  0  0  0  0  0  0999 V2000
  -50.6983   -1.2863   13.6156 O   0  0  0  0  0  0
  -49.5866   -5.3369   16.0239 O   0  0  0  0  0  0
  -52.2380   -5.9809   16.0864 O   0  0  0  0  0  0
  -54.1094   -4.3052   14.9316 O   0  0  0  0  0  0
  -47.7833   -3.6150   15.2523 O   0  0  0  0  0  0
  -48.4170    3.9508   10.9036 O   0  0  0  0  0  0
  -50.0859   -3.3036   14.8219 C   0  0  0  0  0  0
  -51.0318   -2.4612   14.2404 C   0  0  0  0  0  0
  -49.3619   -0.9194   13.5686 C   0  0  0  0  0  0
  -48.6664   -2.9223   14.7660 C   0  0  0  0  0  0
  -50.4832   -4.4891   15.4445 C   0  0  0  0  0  0
  -49.1145    0.3573   12.8691 C   0  0  0  0  0  0
  -48.3595   -1.6481   14.0851 C   0  0  0  0  0  0
  -52.3845   -2.8007   14.2781 C   0  0  0  0  0  0
  -51.8369   -4.8260   15.4811 C   0  0  0  0  0  0
  -52.7855   -3.9838   14.8992 C   0  0  0  0  0  0
  -50.0663    1.3788   12.9158 C   0  0  0  0  0  0
  -47.9271    0.5495   12.1588 C   0  0  0  0  0  0
  -49.8323    2.5852   12.2556 C   0  0  0  0  0  0
  -47.6930    1.7560   11.4988 C   0  0  0  0  0  0
  -48.6457    2.7737   11.5472 C   0  0  0  0  0  0
  -50.0417   -6.0729   16.4603 H   0  0  0  0  0  0
  -51.7419   -6.7207   15.6951 H   0  0  0  0  0  0
  -54.2860   -4.7906   15.7561 H   0  0  0  0  0  0
  -47.4596    4.1215   10.8897 H   0  0  0  0  0  0
  1  8  1  0  0  0
  1  9  1  0  0  0
  2 11  1  0  0  0
  2 22  1  0  0  0
  3 15  1  0  0  0
  3 23  1  0  0  0
  4 16  1  0  0  0
  4 24  1  0  0  0
  5 10  2  0  0  0
  6 21  1  0  0  0
  6 25  1  0  0  0
  7  8  2  0  0  0
  7 10  1  0  0  0
  7 11  1  0  0  0
  8 14  1  0  0  0
  9 12  1  0  0  0
  9 13  2  0  0  0
 10 13  1  0  0  0
 11 15  2  0  0  0
 12 17  2  0  0  0
 12 18  1  0  0  0
 14 16  2  0  0  0
 15 16  1  0  0  0
 17 19  1  0  0  0
 18 20  2  0  0  0
 19 21  2  0  0  0
 20 21  1  0  0  0
M  END
>  <CHROM.0>
-177.71333820,177.57058308,179.58467595

>  <CHROM.1>
175.96227135,-54.26316519,-147.57836960,149.57073586,32.23795300,-50.08518690
-1.72074794,13.92623407,1.21368805,-0.04009819,-0.49395206

>  <Name>
5281697

>  <PUBCHEM_ATOM_DEF_STEREO_COUNT>
0

>  <PUBCHEM_ATOM_UDEF_STEREO_COUNT>
0

>  <PUBCHEM_BOND_DEF_STEREO_COUNT>
0

>  <PUBCHEM_BOND_UDEF_STEREO_COUNT>
0

>  <PUBCHEM_CACTVS_TAUTO_COUNT>
95

>  <PUBCHEM_COMPONENT_COUNT>
1

>  <PUBCHEM_COMPOUND_CID>
5281697

>  <PUBCHEM_CONFORMER_DIVERSEORDER>
1

>  <PUBCHEM_CONFORMER_ID>
005097A100000001

>  <PUBCHEM_CONFORMER_RMSD>
0.6

>  <PUBCHEM_COORDINATE_TYPE>
2
5
10

>  <PUBCHEM_EFFECTIVE_ROTOR_COUNT>
1

>  <PUBCHEM_FEATURE_SELFOVERLAP>
45.711

>  <PUBCHEM_HEAVY_ATOM_COUNT>
21

>  <PUBCHEM_ISOTOPIC_ATOM_COUNT>
0

>  <PUBCHEM_MMFF94_ENERGY>
63.223

>  <PUBCHEM_MMFF94_PARTIAL_CHARGES>
31
1 -0.16
10 0.47
11 0.08
12 0.03
13 -0.14
14 -0.15
15 0.08
16 0.08
17 -0.15
18 -0.15
19 -0.15
2 -0.53
20 -0.15
21 0.08
22 0.15
23 0.15
24 0.15
25 0.15
26 0.15
27 0.15
28 0.45
29 0.45
3 -0.53
30 0.45
31 0.45
4 -0.53
5 -0.57
6 -0.53
7 0.09
8 0.08
9 0.05

>  <PUBCHEM_PHARMACOPHORE_FEATURES>
9
1 1 acceptor
1 2 donor
1 3 donor
1 4 donor
1 5 acceptor
1 6 donor
6 1 7 8 9 10 13 rings
6 12 17 18 19 20 21 rings
6 7 8 11 14 15 16 rings

>  <PUBCHEM_SHAPE_FINGERPRINT>
10319926 262 18339625825081195930
10411042 1 17833271204996093459
10493431 412 18339369548524999705
10498660 4 18336542707697077949
10608611 8 18342173410280654128
10646746 165 18410573976930762244
11315181 36 17967813890389513380
11578080 2 13756702948478097673
11595378 159 17530951459133022432
12107183 9 17901657173352244522
12173636 292 18409726240512267175
12236239 1 17458623445659141570
12390115 104 18270976634926273329
12403259 415 18201996655522882608
12596602 18 16660369224522060160
12916748 109 18408890624269960579
13140716 1 17974859676664193147
13402501 40 18342737420969964016
13544592 145 18270128920288381310
14790565 3 17908994201191005865
15042514 8 18191873533892405547
15196674 1 18410856529976081566
15375358 24 18343866615200910982
18186145 218 18201727214817350440
200 152 16845855685150138058
20510252 161 18342459248711938305
20645477 56 18410293622761219728
20645477 70 17203057288073627646
21033648 29 18342165666017276744
21065198 57 18411699928693820962
21236236 1 18341332275253441647
21267235 1 18336835306807786307
21279426 13 18269558226339808350
21421861 104 17750502985271953402
22122407 14 15430327897065223269
221357 26 18131628967532776153
23175994 123 17275108344395955280
23227448 37 18341048618053264060
23402539 116 18412538846827169727
23402655 69 18131068208529289652
23557571 272 18342746251538334052
23559900 14 18271526391151403446
3004659 81 18335707088557568278
335352 9 18410856568245613789
350125 39 18409452522194264837
351380 180 18342174479584923540
3545911 37 18341896294727416792
4028521 119 18341892969874116496
4073 2 18114749334839713034
4214541 1 18411419514305071984
495365 180 17346303926350983370
5104073 3 18335985259569948114
633830 44 18200025115004324501
69090 78 18343580754709273606
77779 3 18411982455700122788
9709674 26 18342463659786276182

>  <PUBCHEM_SHAPE_MULTIPOLES>
396.95
11.7
2.35
0.66
9.05
0.35
0
-3.96
0.51
-2.32
-0.07
0.24
-0.01
0.68

>  <PUBCHEM_SHAPE_SELFOVERLAP>
891.042

>  <PUBCHEM_SHAPE_VOLUME>
208.7

>  <RI>
-5.66369e+08

>  <Rbt.Current_Directory>
/root/miniconda3/envs/rdock/share/rxdock-2013.1.1_148c5bd1-0/data/ligands/prepped_ligands/Scutellarein

>  <Rbt.Executable>
rbdock/0.1.0

>  <Rbt.Library>
librxdock.so/0.1.0

>  <Rbt.Parameter_File>
/root/miniconda3/envs/rdock/share/rxdock-2013.1.1_148c5bd1-0/data/scripts/dock.prm

>  <Rbt.Receptor>
def.prm

>  <SCORE>
-16.4803

>  <SCORE.INTER>
-19.0858

>  <SCORE.INTER.CONST>
1

>  <SCORE.INTER.POLAR>
-1.26598

>  <SCORE.INTER.REPUL>
0

>  <SCORE.INTER.ROT>
1

>  <SCORE.INTER.VDW>
-21.1815

>  <SCORE.INTER.norm>
-0.908849

>  <SCORE.INTRA>
3.68733

>  <SCORE.INTRA.DIHEDRAL>
5.88893

>  <SCORE.INTRA.DIHEDRAL.0>
1.23292

>  <SCORE.INTRA.POLAR>
0.389126

>  <SCORE.INTRA.POLAR.0>
-0.398136

>  <SCORE.INTRA.REPUL>
0

>  <SCORE.INTRA.REPUL.0>
0

>  <SCORE.INTRA.VDW>
-0.580158

>  <SCORE.INTRA.VDW.0>
1.00302

>  <SCORE.INTRA.norm>
0.175587

>  <SCORE.RESTR>
0

>  <SCORE.RESTR.CAVITY>
0

>  <SCORE.RESTR.norm>
0

>  <SCORE.SYSTEM>
-1.08178

>  <SCORE.SYSTEM.CONST>
0

>  <SCORE.SYSTEM.DIHEDRAL>
0.041251

>  <SCORE.SYSTEM.POLAR>
-0.000928538

>  <SCORE.SYSTEM.VDW>
-1.09925

>  <SCORE.SYSTEM.norm>
-0.0515132

>  <SCORE.heavy>
21

>  <SCORE.norm>
-0.784775

$$$$
5281697
  RxDock  02242101393D
librxdock.so/0.1.0
 25 27  0  0  0  0  0  0  0  0999 V2000
  -50.5385   -1.1999   13.5785 O   0  0  0  0  0  0
  -49.2124   -5.1811   15.9940 O   0  0  0  0  0  0
  -51.8261   -5.9635   16.0614 O   0  0  0  0  0  0
  -53.7845   -4.3911   14.9055 O   0  0  0  0  0  0
  -47.5031   -3.3685   15.2162 O   0  0  0  0  0  0
  -48.5422    4.1414   10.8469 O   0  0  0  0  0  0
  -49.8194   -3.1795   14.7883 C   0  0  0  0  0  0
  -50.8090   -2.3894   14.2062 C   0  0  0  0  0  0
  -49.2233   -0.7633   13.5289 C   0  0  0  0  0  0
  -48.4219   -2.7242   14.7297 C   0  0  0  0  0  0
  -50.1530   -4.3830   15.4140 C   0  0  0  0  0  0
  -49.0443    0.5230   12.8264 C   0  0  0  0  0  0
  -48.1834   -1.4371   14.0456 C   0  0  0  0  0  0
  -52.1419   -2.7994   14.2464 C   0  0  0  0  0  0
  -51.4871   -4.7905   15.4530 C   0  0  0  0  0  0
  -52.4794   -4.0006   14.8706 C   0  0  0  0  0  0
  -47.9293    0.7273   12.0098 C   0  0  0  0  0  0
  -49.9897    1.5408   12.9742 C   0  0  0  0  0  0
  -47.7605    1.9422   11.3454 C   0  0  0  0  0  0
  -49.8210    2.7556   12.3097 C   0  0  0  0  0  0
  -48.7064    2.9563   11.4954 C   0  0  0  0  0  0
  -48.3195   -4.8880   15.7575 H   0  0  0  0  0  0
  -51.5177   -6.6987   15.5037 H   0  0  0  0  0  0
  -54.2494   -3.9706   14.1614 H   0  0  0  0  0  0
  -49.2448    4.7533   11.1258 H   0  0  0  0  0  0
  1  8  1  0  0  0
  1  9  1  0  0  0
  2 11  1  0  0  0
  2 22  1  0  0  0
  3 15  1  0  0  0
  3 23  1  0  0  0
  4 16  1  0  0  0
  4 24  1  0  0  0
  5 10  2  0  0  0
  6 21  1  0  0  0
  6 25  1  0  0  0
  7  8  2  0  0  0
  7 10  1  0  0  0
  7 11  1  0  0  0
  8 14  1  0  0  0
  9 12  1  0  0  0
  9 13  2  0  0  0
 10 13  1  0  0  0
 11 15  2  0  0  0
 12 17  2  0  0  0
 12 18  1  0  0  0
 14 16  2  0  0  0
 15 16  1  0  0  0
 17 19  1  0  0  0
 18 20  2  0  0  0
 19 21  2  0  0  0
 20 21  1  0  0  0
M  END
>  <CHROM.0>
177.10440700,-65.69748706,-178.58836472

>  <CHROM.1>
-10.98627079,-71.79853559,24.58540360,-174.98192242,-141.67181889,-49.90654512
-1.59297033,13.88097367,1.26508305,-0.06208270,-0.49093061

>  <Name>
5281697

>  <PUBCHEM_ATOM_DEF_STEREO_COUNT>
0

>  <PUBCHEM_ATOM_UDEF_STEREO_COUNT>
0

>  <PUBCHEM_BOND_DEF_STEREO_COUNT>
0

>  <PUBCHEM_BOND_UDEF_STEREO_COUNT>
0

>  <PUBCHEM_CACTVS_TAUTO_COUNT>
95

>  <PUBCHEM_COMPONENT_COUNT>
1

>  <PUBCHEM_COMPOUND_CID>
5281697

>  <PUBCHEM_CONFORMER_DIVERSEORDER>
1

>  <PUBCHEM_CONFORMER_ID>
005097A100000001

>  <PUBCHEM_CONFORMER_RMSD>
0.6

>  <PUBCHEM_COORDINATE_TYPE>
2
5
10

>  <PUBCHEM_EFFECTIVE_ROTOR_COUNT>
1

>  <PUBCHEM_FEATURE_SELFOVERLAP>
45.711

>  <PUBCHEM_HEAVY_ATOM_COUNT>
21

>  <PUBCHEM_ISOTOPIC_ATOM_COUNT>
0

>  <PUBCHEM_MMFF94_ENERGY>
63.223

>  <PUBCHEM_MMFF94_PARTIAL_CHARGES>
31
1 -0.16
10 0.47
11 0.08
12 0.03
13 -0.14
14 -0.15
15 0.08
16 0.08
17 -0.15
18 -0.15
19 -0.15
2 -0.53
20 -0.15
21 0.08
22 0.15
23 0.15
24 0.15
25 0.15
26 0.15
27 0.15
28 0.45
29 0.45
3 -0.53
30 0.45
31 0.45
4 -0.53
5 -0.57
6 -0.53
7 0.09
8 0.08
9 0.05

>  <PUBCHEM_PHARMACOPHORE_FEATURES>
9
1 1 acceptor
1 2 donor
1 3 donor
1 4 donor
1 5 acceptor
1 6 donor
6 1 7 8 9 10 13 rings
6 12 17 18 19 20 21 rings
6 7 8 11 14 15 16 rings

>  <PUBCHEM_SHAPE_FINGERPRINT>
10319926 262 18339625825081195930
10411042 1 17833271204996093459
10493431 412 18339369548524999705
10498660 4 18336542707697077949
10608611 8 18342173410280654128
10646746 165 18410573976930762244
11315181 36 17967813890389513380
11578080 2 13756702948478097673
11595378 159 17530951459133022432
12107183 9 17901657173352244522
12173636 292 18409726240512267175
12236239 1 17458623445659141570
12390115 104 18270976634926273329
12403259 415 18201996655522882608
12596602 18 16660369224522060160
12916748 109 18408890624269960579
13140716 1 17974859676664193147
13402501 40 18342737420969964016
13544592 145 18270128920288381310
14790565 3 17908994201191005865
15042514 8 18191873533892405547
15196674 1 18410856529976081566
15375358 24 18343866615200910982
18186145 218 18201727214817350440
200 152 16845855685150138058
20510252 161 18342459248711938305
20645477 56 18410293622761219728
20645477 70 17203057288073627646
21033648 29 18342165666017276744
21065198 57 18411699928693820962
21236236 1 18341332275253441647
21267235 1 18336835306807786307
21279426 13 18269558226339808350
21421861 104 17750502985271953402
22122407 14 15430327897065223269
221357 26 18131628967532776153
23175994 123 17275108344395955280
23227448 37 18341048618053264060
23402539 116 18412538846827169727
23402655 69 18131068208529289652
23557571 272 18342746251538334052
23559900 14 18271526391151403446
3004659 81 18335707088557568278
335352 9 18410856568245613789
350125 39 18409452522194264837
351380 180 18342174479584923540
3545911 37 18341896294727416792
4028521 119 18341892969874116496
4073 2 18114749334839713034
4214541 1 18411419514305071984
495365 180 17346303926350983370
5104073 3 18335985259569948114
633830 44 18200025115004324501
69090 78 18343580754709273606
77779 3 18411982455700122788
9709674 26 18342463659786276182

>  <PUBCHEM_SHAPE_MULTIPOLES>
396.95
11.7
2.35
0.66
9.05
0.35
0
-3.96
0.51
-2.32
-0.07
0.24
-0.01
0.68

>  <PUBCHEM_SHAPE_SELFOVERLAP>
891.042

>  <PUBCHEM_SHAPE_VOLUME>
208.7

>  <RI>
-5.66369e+08

>  <Rbt.Current_Directory>
/root/miniconda3/envs/rdock/share/rxdock-2013.1.1_148c5bd1-0/data/ligands/prepped_ligands/Scutellarein

>  <Rbt.Executable>
rbdock/0.1.0

>  <Rbt.Library>
librxdock.so/0.1.0

>  <Rbt.Parameter_File>
/root/miniconda3/envs/rdock/share/rxdock-2013.1.1_148c5bd1-0/data/scripts/dock.prm

>  <Rbt.Receptor>
def.prm

>  <SCORE>
-18.7488

>  <SCORE.INTER>
-21.8575

>  <SCORE.INTER.CONST>
1

>  <SCORE.INTER.POLAR>
-1.66195

>  <SCORE.INTER.REPUL>
0

>  <SCORE.INTER.ROT>
1

>  <SCORE.INTER.VDW>
-22.6068

>  <SCORE.INTER.norm>
-1.04083

>  <SCORE.INTRA>
3.98473

>  <SCORE.INTRA.DIHEDRAL>
5.94359

>  <SCORE.INTRA.DIHEDRAL.0>
1.23292

>  <SCORE.INTRA.POLAR>
0.398136

>  <SCORE.INTRA.POLAR.0>
-0.398136

>  <SCORE.INTRA.REPUL>
0

>  <SCORE.INTRA.REPUL.0>
0

>  <SCORE.INTRA.VDW>
-0.340731

>  <SCORE.INTRA.VDW.0>
1.00302

>  <SCORE.INTRA.norm>
0.189749

>  <SCORE.RESTR>
0.16913

>  <SCORE.RESTR.CAVITY>
0.16913

>  <SCORE.RESTR.norm>
0.00805379

>  <SCORE.SYSTEM>
-1.04516

>  <SCORE.SYSTEM.CONST>
0

>  <SCORE.SYSTEM.DIHEDRAL>
0.18575

>  <SCORE.SYSTEM.POLAR>
-0.00534657

>  <SCORE.SYSTEM.VDW>
-1.11986

>  <SCORE.SYSTEM.norm>
-0.0497698

>  <SCORE.heavy>
21

>  <SCORE.norm>
-0.892799

$$$$
5281697
  RxDock  02242101393D
librxdock.so/0.1.0
 25 27  0  0  0  0  0  0  0  0999 V2000
  -53.1050   -4.3039   15.2149 O   0  0  0  0  0  0
  -53.0288   -8.7507   17.1290 O   0  0  0  0  0  0
  -55.6593   -9.0404   16.4620 O   0  0  0  0  0  0
  -57.0101   -6.9928   15.1868 O   0  0  0  0  0  0
  -50.9331   -7.1954   17.0915 O   0  0  0  0  0  0
  -49.7275    0.9002   13.9963 O   0  0  0  0  0  0
  -53.0122   -6.5272   16.1886 C   0  0  0  0  0  0
  -53.6959   -5.4970   15.5454 C   0  0  0  0  0  0
  -51.7711   -4.1142   15.5431 C   0  0  0  0  0  0
  -51.5947   -6.3332   16.5301 C   0  0  0  0  0  0
  -53.6651   -7.7220   16.5002 C   0  0  0  0  0  0
  -51.2345   -2.7998   15.1373 C   0  0  0  0  0  0
  -51.0057   -5.0315   16.1557 C   0  0  0  0  0  0
  -55.0405   -5.6564   15.2089 C   0  0  0  0  0  0
  -55.0101   -7.8785   16.1628 C   0  0  0  0  0  0
  -55.6963   -6.8481   15.5186 C   0  0  0  0  0  0
  -51.4075   -2.3453   13.8276 C   0  0  0  0  0  0
  -50.5527   -2.0045   16.0615 C   0  0  0  0  0  0
  -50.9012   -1.1032   13.4444 C   0  0  0  0  0  0
  -50.0467   -0.7624   15.6784 C   0  0  0  0  0  0
  -50.2209   -0.3118   14.3699 C   0  0  0  0  0  0
  -52.0942   -8.5396   17.2741 H   0  0  0  0  0  0
  -55.0383   -9.7793   16.3389 H   0  0  0  0  0  0
  -57.4600   -6.1443   15.3427 H   0  0  0  0  0  0
  -49.7452    0.9622   13.0258 H   0  0  0  0  0  0
  1  8  1  0  0  0
  1  9  1  0  0  0
  2 11  1  0  0  0
  2 22  1  0  0  0
  3 15  1  0  0  0
  3 23  1  0  0  0
  4 16  1  0  0  0
  4 24  1  0  0  0
  5 10  2  0  0  0
  6 21  1  0  0  0
  6 25  1  0  0  0
  7  8  2  0  0  0
  7 10  1  0  0  0
  7 11  1  0  0  0
  8 14  1  0  0  0
  9 12  1  0  0  0
  9 13  2  0  0  0
 10 13  1  0  0  0
 11 15  2  0  0  0
 12 17  2  0  0  0
 12 18  1  0  0  0
 14 16  2  0  0  0
 15 16  1  0  0  0
 17 19  1  0  0  0
 18 20  2  0  0  0
 19 21  2  0  0  0
 20 21  1  0  0  0
M  END
>  <CHROM.0>
-59.67237512,62.56439432,-58.79594608

>  <CHROM.1>
-2.59842506,-36.81953263,-38.70566854,-13.46380438,-50.69449071,-52.63250570
-4.84475899,15.58066502,0.99005895,-0.32520293,-0.44028361

>  <Name>
5281697

>  <PUBCHEM_ATOM_DEF_STEREO_COUNT>
0

>  <PUBCHEM_ATOM_UDEF_STEREO_COUNT>
0

>  <PUBCHEM_BOND_DEF_STEREO_COUNT>
0

>  <PUBCHEM_BOND_UDEF_STEREO_COUNT>
0

>  <PUBCHEM_CACTVS_TAUTO_COUNT>
95

>  <PUBCHEM_COMPONENT_COUNT>
1

>  <PUBCHEM_COMPOUND_CID>
5281697

>  <PUBCHEM_CONFORMER_DIVERSEORDER>
1

>  <PUBCHEM_CONFORMER_ID>
005097A100000001

>  <PUBCHEM_CONFORMER_RMSD>
0.6

>  <PUBCHEM_COORDINATE_TYPE>
2
5
10

>  <PUBCHEM_EFFECTIVE_ROTOR_COUNT>
1

>  <PUBCHEM_FEATURE_SELFOVERLAP>
45.711

>  <PUBCHEM_HEAVY_ATOM_COUNT>
21

>  <PUBCHEM_ISOTOPIC_ATOM_COUNT>
0

>  <PUBCHEM_MMFF94_ENERGY>
63.223

>  <PUBCHEM_MMFF94_PARTIAL_CHARGES>
31
1 -0.16
10 0.47
11 0.08
12 0.03
13 -0.14
14 -0.15
15 0.08
16 0.08
17 -0.15
18 -0.15
19 -0.15
2 -0.53
20 -0.15
21 0.08
22 0.15
23 0.15
24 0.15
25 0.15
26 0.15
27 0.15
28 0.45
29 0.45
3 -0.53
30 0.45
31 0.45
4 -0.53
5 -0.57
6 -0.53
7 0.09
8 0.08
9 0.05

>  <PUBCHEM_PHARMACOPHORE_FEATURES>
9
1 1 acceptor
1 2 donor
1 3 donor
1 4 donor
1 5 acceptor
1 6 donor
6 1 7 8 9 10 13 rings
6 12 17 18 19 20 21 rings
6 7 8 11 14 15 16 rings

>  <PUBCHEM_SHAPE_FINGERPRINT>
10319926 262 18339625825081195930
10411042 1 17833271204996093459
10493431 412 18339369548524999705
10498660 4 18336542707697077949
10608611 8 18342173410280654128
10646746 165 18410573976930762244
11315181 36 17967813890389513380
11578080 2 13756702948478097673
11595378 159 17530951459133022432
12107183 9 17901657173352244522
12173636 292 18409726240512267175
12236239 1 17458623445659141570
12390115 104 18270976634926273329
12403259 415 18201996655522882608
12596602 18 16660369224522060160
12916748 109 18408890624269960579
13140716 1 17974859676664193147
13402501 40 18342737420969964016
13544592 145 18270128920288381310
14790565 3 17908994201191005865
15042514 8 18191873533892405547
15196674 1 18410856529976081566
15375358 24 18343866615200910982
18186145 218 18201727214817350440
200 152 16845855685150138058
20510252 161 18342459248711938305
20645477 56 18410293622761219728
20645477 70 17203057288073627646
21033648 29 18342165666017276744
21065198 57 18411699928693820962
21236236 1 18341332275253441647
21267235 1 18336835306807786307
21279426 13 18269558226339808350
21421861 104 17750502985271953402
22122407 14 15430327897065223269
221357 26 18131628967532776153
23175994 123 17275108344395955280
23227448 37 18341048618053264060
23402539 116 18412538846827169727
23402655 69 18131068208529289652
23557571 272 18342746251538334052
23559900 14 18271526391151403446
3004659 81 18335707088557568278
335352 9 18410856568245613789
350125 39 18409452522194264837
351380 180 18342174479584923540
3545911 37 18341896294727416792
4028521 119 18341892969874116496
4073 2 18114749334839713034
4214541 1 18411419514305071984
495365 180 17346303926350983370
5104073 3 18335985259569948114
633830 44 18200025115004324501
69090 78 18343580754709273606
77779 3 18411982455700122788
9709674 26 18342463659786276182

>  <PUBCHEM_SHAPE_MULTIPOLES>
396.95
11.7
2.35
0.66
9.05
0.35
0
-3.96
0.51
-2.32
-0.07
0.24
-0.01
0.68

>  <PUBCHEM_SHAPE_SELFOVERLAP>
891.042

>  <PUBCHEM_SHAPE_VOLUME>
208.7

>  <RI>
-5.66369e+08

>  <Rbt.Current_Directory>
/root/miniconda3/envs/rdock/share/rxdock-2013.1.1_148c5bd1-0/data/ligands/prepped_ligands/Scutellarein

>  <Rbt.Executable>
rbdock/0.1.0

>  <Rbt.Library>
librxdock.so/0.1.0

>  <Rbt.Parameter_File>
/root/miniconda3/envs/rdock/share/rxdock-2013.1.1_148c5bd1-0/data/scripts/dock.prm

>  <Rbt.Receptor>
def.prm

>  <SCORE>
-11.8713

>  <SCORE.INTER>
-14.3338

>  <SCORE.INTER.CONST>
1

>  <SCORE.INTER.POLAR>
-0.138317

>  <SCORE.INTER.REPUL>
0.000600837

>  <SCORE.INTER.ROT>
1

>  <SCORE.INTER.VDW>
-20.2665

>  <SCORE.INTER.norm>
-0.68256

>  <SCORE.INTRA>
3.48661

>  <SCORE.INTRA.DIHEDRAL>
5.55483

>  <SCORE.INTRA.DIHEDRAL.0>
1.23292

>  <SCORE.INTRA.POLAR>
0.398136

>  <SCORE.INTRA.POLAR.0>
-0.398136

>  <SCORE.INTRA.REPUL>
0

>  <SCORE.INTRA.REPUL.0>
0

>  <SCORE.INTRA.VDW>
-0.644466

>  <SCORE.INTRA.VDW.0>
1.00302

>  <SCORE.INTRA.norm>
0.166029

>  <SCORE.RESTR>
0

>  <SCORE.RESTR.CAVITY>
0

>  <SCORE.RESTR.norm>
0

>  <SCORE.SYSTEM>
-1.02415

>  <SCORE.SYSTEM.CONST>
0

>  <SCORE.SYSTEM.DIHEDRAL>
0.0352212

>  <SCORE.SYSTEM.POLAR>
-0.00377376

>  <SCORE.SYSTEM.VDW>
-1.02893

>  <SCORE.SYSTEM.norm>
-0.0487691

>  <SCORE.heavy>
21

>  <SCORE.norm>
-0.5653

$$$$
5281697
  RxDock  02242101393D
librxdock.so/0.1.0
 25 27  0  0  0  0  0  0  0  0999 V2000
  -51.5630   -2.5961   14.5412 O   0  0  0  0  0  0
  -46.8309   -1.5774   14.4310 O   0  0  0  0  0  0
  -47.4015    0.7456   13.1169 O   0  0  0  0  0  0
  -50.0186    1.4023   12.5143 O   0  0  0  0  0  0
  -47.7811   -3.7479   15.5257 O   0  0  0  0  0  0
  -55.9527   -6.7492   16.4036 O   0  0  0  0  0  0
  -49.1787   -2.1337   14.5130 C   0  0  0  0  0  0
  -50.4970   -1.7996   14.2081 C   0  0  0  0  0  0
  -51.3149   -3.7889   15.2034 C   0  0  0  0  0  0
  -48.9122   -3.3938   15.2236 C   0  0  0  0  0  0
  -48.1319   -1.2833   14.1498 C   0  0  0  0  0  0
  -52.5312   -4.5644   15.5186 C   0  0  0  0  0  0
  -50.0925   -4.2166   15.5574 C   0  0  0  0  0  0
  -50.7769   -0.6093   13.5363 C   0  0  0  0  0  0
  -48.4148   -0.0935   13.4775 C   0  0  0  0  0  0
  -49.7343    0.2428   13.1715 C   0  0  0  0  0  0
  -53.6542   -4.4748   14.6924 C   0  0  0  0  0  0
  -52.5638   -5.3921   16.6435 C   0  0  0  0  0  0
  -54.8031   -5.2081   14.9897 C   0  0  0  0  0  0
  -53.7126   -6.1255   16.9406 C   0  0  0  0  0  0
  -54.8322   -6.0334   16.1138 C   0  0  0  0  0  0
  -46.7650   -2.4103   14.9219 H   0  0  0  0  0  0
  -46.6122    0.2093   12.9264 H   0  0  0  0  0  0
  -49.1845    1.7787   12.1835 H   0  0  0  0  0  0
  -56.5556   -6.7134   15.6412 H   0  0  0  0  0  0
  1  8  1  0  0  0
  1  9  1  0  0  0
  2 11  1  0  0  0
  2 22  1  0  0  0
  3 15  1  0  0  0
  3 23  1  0  0  0
  4 16  1  0  0  0
  4 24  1  0  0  0
  5 10  2  0  0  0
  6 21  1  0  0  0
  6 25  1  0  0  0
  7  8  2  0  0  0
  7 10  1  0  0  0
  7 11  1  0  0  0
  8 14  1  0  0  0
  9 12  1  0  0  0
  9 13  2  0  0  0
 10 13  1  0  0  0
 11 15  2  0  0  0
 12 17  2  0  0  0
 12 18  1  0  0  0
 14 16  2  0  0  0
 15 16  1  0  0  0
 17 19  1  0  0  0
 18 20  2  0  0  0
 19 21  2  0  0  0
 20 21  1  0  0  0
M  END
>  <CHROM.0>
59.12405570,-174.83137378,65.45979560

>  <CHROM.1>
-1.83981138,31.79569395,-168.80213898,11.56796005,29.81540475,-50.83011823
-2.86753479,14.75474671,2.36153889,0.12053223,2.60177826

>  <Name>
5281697

>  <PUBCHEM_ATOM_DEF_STEREO_COUNT>
0

>  <PUBCHEM_ATOM_UDEF_STEREO_COUNT>
0

>  <PUBCHEM_BOND_DEF_STEREO_COUNT>
0

>  <PUBCHEM_BOND_UDEF_STEREO_COUNT>
0

>  <PUBCHEM_CACTVS_TAUTO_COUNT>
95

>  <PUBCHEM_COMPONENT_COUNT>
1

>  <PUBCHEM_COMPOUND_CID>
5281697

>  <PUBCHEM_CONFORMER_DIVERSEORDER>
1

>  <PUBCHEM_CONFORMER_ID>
005097A100000001

>  <PUBCHEM_CONFORMER_RMSD>
0.6

>  <PUBCHEM_COORDINATE_TYPE>
2
5
10

>  <PUBCHEM_EFFECTIVE_ROTOR_COUNT>
1

>  <PUBCHEM_FEATURE_SELFOVERLAP>
45.711

>  <PUBCHEM_HEAVY_ATOM_COUNT>
21

>  <PUBCHEM_ISOTOPIC_ATOM_COUNT>
0

>  <PUBCHEM_MMFF94_ENERGY>
63.223

>  <PUBCHEM_MMFF94_PARTIAL_CHARGES>
31
1 -0.16
10 0.47
11 0.08
12 0.03
13 -0.14
14 -0.15
15 0.08
16 0.08
17 -0.15
18 -0.15
19 -0.15
2 -0.53
20 -0.15
21 0.08
22 0.15
23 0.15
24 0.15
25 0.15
26 0.15
27 0.15
28 0.45
29 0.45
3 -0.53
30 0.45
31 0.45
4 -0.53
5 -0.57
6 -0.53
7 0.09
8 0.08
9 0.05

>  <PUBCHEM_PHARMACOPHORE_FEATURES>
9
1 1 acceptor
1 2 donor
1 3 donor
1 4 donor
1 5 acceptor
1 6 donor
6 1 7 8 9 10 13 rings
6 12 17 18 19 20 21 rings
6 7 8 11 14 15 16 rings

>  <PUBCHEM_SHAPE_FINGERPRINT>
10319926 262 18339625825081195930
10411042 1 17833271204996093459
10493431 412 18339369548524999705
10498660 4 18336542707697077949
10608611 8 18342173410280654128
10646746 165 18410573976930762244
11315181 36 17967813890389513380
11578080 2 13756702948478097673
11595378 159 17530951459133022432
12107183 9 17901657173352244522
12173636 292 18409726240512267175
12236239 1 17458623445659141570
12390115 104 18270976634926273329
12403259 415 18201996655522882608
12596602 18 16660369224522060160
12916748 109 18408890624269960579
13140716 1 17974859676664193147
13402501 40 18342737420969964016
13544592 145 18270128920288381310
14790565 3 17908994201191005865
15042514 8 18191873533892405547
15196674 1 18410856529976081566
15375358 24 18343866615200910982
18186145 218 18201727214817350440
200 152 16845855685150138058
20510252 161 18342459248711938305
20645477 56 18410293622761219728
20645477 70 17203057288073627646
21033648 29 18342165666017276744
21065198 57 18411699928693820962
21236236 1 18341332275253441647
21267235 1 18336835306807786307
21279426 13 18269558226339808350
21421861 104 17750502985271953402
22122407 14 15430327897065223269
221357 26 18131628967532776153
23175994 123 17275108344395955280
23227448 37 18341048618053264060
23402539 116 18412538846827169727
23402655 69 18131068208529289652
23557571 272 18342746251538334052
23559900 14 18271526391151403446
3004659 81 18335707088557568278
335352 9 18410856568245613789
350125 39 18409452522194264837
351380 180 18342174479584923540
3545911 37 18341896294727416792
4028521 119 18341892969874116496
4073 2 18114749334839713034
4214541 1 18411419514305071984
495365 180 17346303926350983370
5104073 3 18335985259569948114
633830 44 18200025115004324501
69090 78 18343580754709273606
77779 3 18411982455700122788
9709674 26 18342463659786276182

>  <PUBCHEM_SHAPE_MULTIPOLES>
396.95
11.7
2.35
0.66
9.05
0.35
0
-3.96
0.51
-2.32
-0.07
0.24
-0.01
0.68

>  <PUBCHEM_SHAPE_SELFOVERLAP>
891.042

>  <PUBCHEM_SHAPE_VOLUME>
208.7

>  <RI>
-5.66369e+08

>  <Rbt.Current_Directory>
/root/miniconda3/envs/rdock/share/rxdock-2013.1.1_148c5bd1-0/data/ligands/prepped_ligands/Scutellarein

>  <Rbt.Executable>
rbdock/0.1.0

>  <Rbt.Library>
librxdock.so/0.1.0

>  <Rbt.Parameter_File>
/root/miniconda3/envs/rdock/share/rxdock-2013.1.1_148c5bd1-0/data/scripts/dock.prm

>  <Rbt.Receptor>
def.prm

>  <SCORE>
-16.1365

>  <SCORE.INTER>
-16.7089

>  <SCORE.INTER.CONST>
1

>  <SCORE.INTER.POLAR>
-1.99852

>  <SCORE.INTER.REPUL>
0.311104

>  <SCORE.INTER.ROT>
1

>  <SCORE.INTER.VDW>
-17.8694

>  <SCORE.INTER.norm>
-0.79566

>  <SCORE.INTRA>
1.52258

>  <SCORE.INTRA.DIHEDRAL>
1.62866

>  <SCORE.INTRA.DIHEDRAL.0>
1.23292

>  <SCORE.INTRA.POLAR>
0.25661

>  <SCORE.INTRA.POLAR.0>
-0.398136

>  <SCORE.INTRA.REPUL>
0

>  <SCORE.INTRA.REPUL.0>
0

>  <SCORE.INTRA.VDW>
-0.164227

>  <SCORE.INTRA.VDW.0>
1.00302

>  <SCORE.INTRA.norm>
0.0725036

>  <SCORE.RESTR>
0

>  <SCORE.RESTR.CAVITY>
0

>  <SCORE.RESTR.norm>
0

>  <SCORE.SYSTEM>
-0.950238

>  <SCORE.SYSTEM.CONST>
0

>  <SCORE.SYSTEM.DIHEDRAL>
0.202425

>  <SCORE.SYSTEM.POLAR>
-0.0116851

>  <SCORE.SYSTEM.VDW>
-1.01172

>  <SCORE.SYSTEM.norm>
-0.0452494

>  <SCORE.heavy>
21

>  <SCORE.norm>
-0.768405

$$$$
5281697
  RxDock  02242101393D
librxdock.so/0.1.0
 25 27  0  0  0  0  0  0  0  0999 V2000
  -51.5376   -2.8555   14.6274 O   0  0  0  0  0  0
  -51.1102   -7.1341   16.8530 O   0  0  0  0  0  0
  -53.8319   -7.3145   16.9441 O   0  0  0  0  0  0
  -55.4009   -5.2951   15.8936 O   0  0  0  0  0  0
  -49.0470   -5.7172   16.1127 O   0  0  0  0  0  0
  -48.4236    2.0207   12.0760 O   0  0  0  0  0  0
  -51.2668   -4.9967   15.7415 C   0  0  0  0  0  0
  -52.0607   -3.9806   15.2125 C   0  0  0  0  0  0
  -50.1587   -2.7222   14.5676 C   0  0  0  0  0  0
  -49.8036   -4.8632   15.6718 C   0  0  0  0  0  0
  -51.8545   -6.1213   16.3254 C   0  0  0  0  0  0
  -49.7039   -1.4789   13.9135 C   0  0  0  0  0  0
  -49.2904   -3.6334   15.0349 C   0  0  0  0  0  0
  -53.4510   -4.0837   15.2643 C   0  0  0  0  0  0
  -53.2455   -6.2215   16.3762 C   0  0  0  0  0  0
  -54.0420   -5.2051   15.8469 C   0  0  0  0  0  0
  -50.6207   -0.4690   13.6118 C   0  0  0  0  0  0
  -48.3547   -1.3068   13.5948 C   0  0  0  0  0  0
  -50.1909    0.7059   12.9945 C   0  0  0  0  0  0
  -47.9249   -0.1319   12.9778 C   0  0  0  0  0  0
  -48.8431    0.8744   12.6776 C   0  0  0  0  0  0
  -50.1751   -7.0310   16.6204 H   0  0  0  0  0  0
  -54.7911   -7.2631   16.7897 H   0  0  0  0  0  0
  -55.7734   -4.5908   15.3351 H   0  0  0  0  0  0
  -48.1042    1.8089   11.1821 H   0  0  0  0  0  0
  1  8  1  0  0  0
  1  9  1  0  0  0
  2 11  1  0  0  0
  2 22  1  0  0  0
  3 15  1  0  0  0
  3 23  1  0  0  0
  4 16  1  0  0  0
  4 24  1  0  0  0
  5 10  2  0  0  0
  6 21  1  0  0  0
  6 25  1  0  0  0
  7  8  2  0  0  0
  7 10  1  0  0  0
  7 11  1  0  0  0
  8 14  1  0  0  0
  9 12  1  0  0  0
  9 13  2  0  0  0
 10 13  1  0  0  0
 11 15  2  0  0  0
 12 17  2  0  0  0
 12 18  1  0  0  0
 14 16  2  0  0  0
 15 16  1  0  0  0
 17 19  1  0  0  0
 18 20  2  0  0  0
 19 21  2  0  0  0
 20 21  1  0  0  0
M  END
>  <CHROM.0>
-52.99078975,-176.42087665,168.67075573

>  <CHROM.1>
-10.17342362,-173.00187095,10.65926501,-114.35026624,10.09925494,-51.00689475
-3.39229121,14.89917724,1.06574608,0.01691993,-0.47315257

>  <Name>
5281697

>  <PUBCHEM_ATOM_DEF_STEREO_COUNT>
0

>  <PUBCHEM_ATOM_UDEF_STEREO_COUNT>
0

>  <PUBCHEM_BOND_DEF_STEREO_COUNT>
0

>  <PUBCHEM_BOND_UDEF_STEREO_COUNT>
0

>  <PUBCHEM_CACTVS_TAUTO_COUNT>
95

>  <PUBCHEM_COMPONENT_COUNT>
1

>  <PUBCHEM_COMPOUND_CID>
5281697

>  <PUBCHEM_CONFORMER_DIVERSEORDER>
1

>  <PUBCHEM_CONFORMER_ID>
005097A100000001

>  <PUBCHEM_CONFORMER_RMSD>
0.6

>  <PUBCHEM_COORDINATE_TYPE>
2
5
10

>  <PUBCHEM_EFFECTIVE_ROTOR_COUNT>
1

>  <PUBCHEM_FEATURE_SELFOVERLAP>
45.711

>  <PUBCHEM_HEAVY_ATOM_COUNT>
21

>  <PUBCHEM_ISOTOPIC_ATOM_COUNT>
0

>  <PUBCHEM_MMFF94_ENERGY>
63.223

>  <PUBCHEM_MMFF94_PARTIAL_CHARGES>
31
1 -0.16
10 0.47
11 0.08
12 0.03
13 -0.14
14 -0.15
15 0.08
16 0.08
17 -0.15
18 -0.15
19 -0.15
2 -0.53
20 -0.15
21 0.08
22 0.15
23 0.15
24 0.15
25 0.15
26 0.15
27 0.15
28 0.45
29 0.45
3 -0.53
30 0.45
31 0.45
4 -0.53
5 -0.57
6 -0.53
7 0.09
8 0.08
9 0.05

>  <PUBCHEM_PHARMACOPHORE_FEATURES>
9
1 1 acceptor
1 2 donor
1 3 donor
1 4 donor
1 5 acceptor
1 6 donor
6 1 7 8 9 10 13 rings
6 12 17 18 19 20 21 rings
6 7 8 11 14 15 16 rings

>  <PUBCHEM_SHAPE_FINGERPRINT>
10319926 262 18339625825081195930
10411042 1 17833271204996093459
10493431 412 18339369548524999705
10498660 4 18336542707697077949
10608611 8 18342173410280654128
10646746 165 18410573976930762244
11315181 36 17967813890389513380
11578080 2 13756702948478097673
11595378 159 17530951459133022432
12107183 9 17901657173352244522
12173636 292 18409726240512267175
12236239 1 17458623445659141570
12390115 104 18270976634926273329
12403259 415 18201996655522882608
12596602 18 16660369224522060160
12916748 109 18408890624269960579
13140716 1 17974859676664193147
13402501 40 18342737420969964016
13544592 145 18270128920288381310
14790565 3 17908994201191005865
15042514 8 18191873533892405547
15196674 1 18410856529976081566
15375358 24 18343866615200910982
18186145 218 18201727214817350440
200 152 16845855685150138058
20510252 161 18342459248711938305
20645477 56 18410293622761219728
20645477 70 17203057288073627646
21033648 29 18342165666017276744
21065198 57 18411699928693820962
21236236 1 18341332275253441647
21267235 1 18336835306807786307
21279426 13 18269558226339808350
21421861 104 17750502985271953402
22122407 14 15430327897065223269
221357 26 18131628967532776153
23175994 123 17275108344395955280
23227448 37 18341048618053264060
23402539 116 18412538846827169727
23402655 69 18131068208529289652
23557571 272 18342746251538334052
23559900 14 18271526391151403446
3004659 81 18335707088557568278
335352 9 18410856568245613789
350125 39 18409452522194264837
351380 180 18342174479584923540
3545911 37 18341896294727416792
4028521 119 18341892969874116496
4073 2 18114749334839713034
4214541 1 18411419514305071984
495365 180 17346303926350983370
5104073 3 18335985259569948114
633830 44 18200025115004324501
69090 78 18343580754709273606
77779 3 18411982455700122788
9709674 26 18342463659786276182

>  <PUBCHEM_SHAPE_MULTIPOLES>
396.95
11.7
2.35
0.66
9.05
0.35
0
-3.96
0.51
-2.32
-0.07
0.24
-0.01
0.68

>  <PUBCHEM_SHAPE_SELFOVERLAP>
891.042

>  <PUBCHEM_SHAPE_VOLUME>
208.7

>  <RI>
-5.66369e+08

>  <Rbt.Current_Directory>
/root/miniconda3/envs/rdock/share/rxdock-2013.1.1_148c5bd1-0/data/ligands/prepped_ligands/Scutellarein

>  <Rbt.Executable>
rbdock/0.1.0

>  <Rbt.Library>
librxdock.so/0.1.0

>  <Rbt.Parameter_File>
/root/miniconda3/envs/rdock/share/rxdock-2013.1.1_148c5bd1-0/data/scripts/dock.prm

>  <Rbt.Receptor>
def.prm

>  <SCORE>
-15.0532

>  <SCORE.INTER>
-16.8589

>  <SCORE.INTER.CONST>
1

>  <SCORE.INTER.POLAR>
-1.43472

>  <SCORE.INTER.REPUL>
0.102625

>  <SCORE.INTER.ROT>
1

>  <SCORE.INTER.VDW>
-18.894

>  <SCORE.INTER.norm>
-0.802804

>  <SCORE.INTRA>
2.60844

>  <SCORE.INTRA.DIHEDRAL>
3.26962

>  <SCORE.INTRA.DIHEDRAL.0>
1.23292

>  <SCORE.INTRA.POLAR>
0.228815

>  <SCORE.INTRA.POLAR.0>
-0.398136

>  <SCORE.INTRA.REPUL>
0

>  <SCORE.INTRA.REPUL.0>
0

>  <SCORE.INTRA.VDW>
0.195661

>  <SCORE.INTRA.VDW.0>
1.00302

>  <SCORE.INTRA.norm>
0.124212

>  <SCORE.RESTR>
0

>  <SCORE.RESTR.CAVITY>
0

>  <SCORE.RESTR.norm>
0

>  <SCORE.SYSTEM>
-0.802774

>  <SCORE.SYSTEM.CONST>
0

>  <SCORE.SYSTEM.DIHEDRAL>
0.494232

>  <SCORE.SYSTEM.VDW>
-1.04989

>  <SCORE.SYSTEM.norm>
-0.0382274

>  <SCORE.heavy>
21

>  <SCORE.norm>
-0.71682

$$$$
5281697
  RxDock  02242101393D
librxdock.so/0.1.0
 25 27  0  0  0  0  0  0  0  0999 V2000
  -49.8623   -3.4702   16.2218 O   0  0  0  0  0  0
  -46.0445   -1.0451   14.4937 O   0  0  0  0  0  0
  -47.7437    0.5060   13.0257 O   0  0  0  0  0  0
  -50.4734    0.0842   13.1439 O   0  0  0  0  0  0
  -45.8140   -3.0123   16.1934 O   0  0  0  0  0  0
  -51.7787   -8.1281   20.0435 O   0  0  0  0  0  0
  -47.9129   -2.2867   15.3857 C   0  0  0  0  0  0
  -49.2895   -2.4966   15.4433 C   0  0  0  0  0  0
  -49.0326   -4.2847   16.9775 C   0  0  0  0  0  0
  -47.0302   -3.1427   16.1931 C   0  0  0  0  0  0
  -47.3849   -1.2790   14.5754 C   0  0  0  0  0  0
  -49.7520   -5.2930   17.7814 C   0  0  0  0  0  0
  -47.6948   -4.1769   17.0118 C   0  0  0  0  0  0
  -50.1487   -1.6973   14.6888 C   0  0  0  0  0  0
  -48.2467   -0.4813   13.8214 C   0  0  0  0  0  0
  -49.6255   -0.6899   13.8779 C   0  0  0  0  0  0
  -49.6112   -5.3130   19.1712 C   0  0  0  0  0  0
  -50.5774   -6.2304   17.1558 C   0  0  0  0  0  0
  -50.2914   -6.2651   19.9307 C   0  0  0  0  0  0
  -51.2577   -7.1823   17.9153 C   0  0  0  0  0  0
  -51.1146   -7.1997   19.3027 C   0  0  0  0  0  0
  -45.7510   -1.0456   13.5701 H   0  0  0  0  0  0
  -46.9087    0.1917   12.6374 H   0  0  0  0  0  0
  -49.9442    0.7363   12.6526 H   0  0  0  0  0  0
  -52.1413   -8.8061   19.4478 H   0  0  0  0  0  0
  1  8  1  0  0  0
  1  9  1  0  0  0
  2 11  1  0  0  0
  2 22  1  0  0  0
  3 15  1  0  0  0
  3 23  1  0  0  0
  4 16  1  0  0  0
  4 24  1  0  0  0
  5 10  2  0  0  0
  6 21  1  0  0  0
  6 25  1  0  0  0
  7  8  2  0  0  0
  7 10  1  0  0  0
  7 11  1  0  0  0
  8 14  1  0  0  0
  9 12  1  0  0  0
  9 13  2  0  0  0
 10 13  1  0  0  0
 11 15  2  0  0  0
 12 17  2  0  0  0
 12 18  1  0  0  0
 14 16  2  0  0  0
 15 16  1  0  0  0
 17 19  1  0  0  0
 18 20  2  0  0  0
 19 21  2  0  0  0
 20 21  1  0  0  0
M  END
>  <CHROM.0>
-57.50772076,-65.09379442,-61.41464338

>  <CHROM.1>
127.16381186,36.86260178,179.21454063,-167.81098730,-120.98994135,-49.05418594
-3.41671340,16.24122979,1.89874745,0.12694039,2.41296877

>  <Name>
5281697

>  <PUBCHEM_ATOM_DEF_STEREO_COUNT>
0

>  <PUBCHEM_ATOM_UDEF_STEREO_COUNT>
0

>  <PUBCHEM_BOND_DEF_STEREO_COUNT>
0

>  <PUBCHEM_BOND_UDEF_STEREO_COUNT>
0

>  <PUBCHEM_CACTVS_TAUTO_COUNT>
95

>  <PUBCHEM_COMPONENT_COUNT>
1

>  <PUBCHEM_COMPOUND_CID>
5281697

>  <PUBCHEM_CONFORMER_DIVERSEORDER>
1

>  <PUBCHEM_CONFORMER_ID>
005097A100000001

>  <PUBCHEM_CONFORMER_RMSD>
0.6

>  <PUBCHEM_COORDINATE_TYPE>
2
5
10

>  <PUBCHEM_EFFECTIVE_ROTOR_COUNT>
1

>  <PUBCHEM_FEATURE_SELFOVERLAP>
45.711

>  <PUBCHEM_HEAVY_ATOM_COUNT>
21

>  <PUBCHEM_ISOTOPIC_ATOM_COUNT>
0

>  <PUBCHEM_MMFF94_ENERGY>
63.223

>  <PUBCHEM_MMFF94_PARTIAL_CHARGES>
31
1 -0.16
10 0.47
11 0.08
12 0.03
13 -0.14
14 -0.15
15 0.08
16 0.08
17 -0.15
18 -0.15
19 -0.15
2 -0.53
20 -0.15
21 0.08
22 0.15
23 0.15
24 0.15
25 0.15
26 0.15
27 0.15
28 0.45
29 0.45
3 -0.53
30 0.45
31 0.45
4 -0.53
5 -0.57
6 -0.53
7 0.09
8 0.08
9 0.05

>  <PUBCHEM_PHARMACOPHORE_FEATURES>
9
1 1 acceptor
1 2 donor
1 3 donor
1 4 donor
1 5 acceptor
1 6 donor
6 1 7 8 9 10 13 rings
6 12 17 18 19 20 21 rings
6 7 8 11 14 15 16 rings

>  <PUBCHEM_SHAPE_FINGERPRINT>
10319926 262 18339625825081195930
10411042 1 17833271204996093459
10493431 412 18339369548524999705
10498660 4 18336542707697077949
10608611 8 18342173410280654128
10646746 165 18410573976930762244
11315181 36 17967813890389513380
11578080 2 13756702948478097673
11595378 159 17530951459133022432
12107183 9 17901657173352244522
12173636 292 18409726240512267175
12236239 1 17458623445659141570
12390115 104 18270976634926273329
12403259 415 18201996655522882608
12596602 18 16660369224522060160
12916748 109 18408890624269960579
13140716 1 17974859676664193147
13402501 40 18342737420969964016
13544592 145 18270128920288381310
14790565 3 17908994201191005865
15042514 8 18191873533892405547
15196674 1 18410856529976081566
15375358 24 18343866615200910982
18186145 218 18201727214817350440
200 152 16845855685150138058
20510252 161 18342459248711938305
20645477 56 18410293622761219728
20645477 70 17203057288073627646
21033648 29 18342165666017276744
21065198 57 18411699928693820962
21236236 1 18341332275253441647
21267235 1 18336835306807786307
21279426 13 18269558226339808350
21421861 104 17750502985271953402
22122407 14 15430327897065223269
221357 26 18131628967532776153
23175994 123 17275108344395955280
23227448 37 18341048618053264060
23402539 116 18412538846827169727
23402655 69 18131068208529289652
23557571 272 18342746251538334052
23559900 14 18271526391151403446
3004659 81 18335707088557568278
335352 9 18410856568245613789
350125 39 18409452522194264837
351380 180 18342174479584923540
3545911 37 18341896294727416792
4028521 119 18341892969874116496
4073 2 18114749334839713034
4214541 1 18411419514305071984
495365 180 17346303926350983370
5104073 3 18335985259569948114
633830 44 18200025115004324501
69090 78 18343580754709273606
77779 3 18411982455700122788
9709674 26 18342463659786276182

>  <PUBCHEM_SHAPE_MULTIPOLES>
396.95
11.7
2.35
0.66
9.05
0.35
0
-3.96
0.51
-2.32
-0.07
0.24
-0.01
0.68

>  <PUBCHEM_SHAPE_SELFOVERLAP>
891.042

>  <PUBCHEM_SHAPE_VOLUME>
208.7

>  <RI>
-5.66369e+08

>  <Rbt.Current_Directory>
/root/miniconda3/envs/rdock/share/rxdock-2013.1.1_148c5bd1-0/data/ligands/prepped_ligands/Scutellarein

>  <Rbt.Executable>
rbdock/0.1.0

>  <Rbt.Library>
librxdock.so/0.1.0

>  <Rbt.Parameter_File>
/root/miniconda3/envs/rdock/share/rxdock-2013.1.1_148c5bd1-0/data/scripts/dock.prm

>  <Rbt.Receptor>
def.prm

>  <SCORE>
-16.5814

>  <SCORE.INTER>
-19.106

>  <SCORE.INTER.CONST>
1

>  <SCORE.INTER.POLAR>
-3.04549

>  <SCORE.INTER.REPUL>
0.0364048

>  <SCORE.INTER.ROT>
1

>  <SCORE.INTER.VDW>
-15.3334

>  <SCORE.INTER.norm>
-0.909809

>  <SCORE.INTRA>
3.57127

>  <SCORE.INTRA.DIHEDRAL>
7.24695

>  <SCORE.INTRA.DIHEDRAL.0>
1.23292

>  <SCORE.INTRA.POLAR>
0.253017

>  <SCORE.INTRA.POLAR.0>
-0.398136

>  <SCORE.INTRA.REPUL>
0

>  <SCORE.INTRA.REPUL.0>
0

>  <SCORE.INTRA.VDW>
-0.912463

>  <SCORE.INTRA.VDW.0>
1.00302

>  <SCORE.INTRA.norm>
0.170061

>  <SCORE.RESTR>
0

>  <SCORE.RESTR.CAVITY>
0

>  <SCORE.RESTR.norm>
0

>  <SCORE.SYSTEM>
-1.04668

>  <SCORE.SYSTEM.CONST>
0

>  <SCORE.SYSTEM.DIHEDRAL>
0.147041

>  <SCORE.SYSTEM.VDW>
-1.1202

>  <SCORE.SYSTEM.norm>
-0.0498419

>  <SCORE.heavy>
21

>  <SCORE.norm>
-0.789591

$$$$
5281697
  RxDock  02242101393D
librxdock.so/0.1.0
 25 27  0  0  0  0  0  0  0  0999 V2000
  -50.6125   -1.3078   13.6122 O   0  0  0  0  0  0
  -49.2048   -5.2921   15.9758 O   0  0  0  0  0  0
  -51.8025   -6.1265   16.0367 O   0  0  0  0  0  0
  -53.7931   -4.5786   14.9031 O   0  0  0  0  0  0
  -47.5326   -3.4366   15.2187 O   0  0  0  0  0  0
  -48.7257    4.1056   10.9454 O   0  0  0  0  0  0
  -49.8528   -3.2879   14.7961 C   0  0  0  0  0  0
  -50.8586   -2.5101   14.2253 C   0  0  0  0  0  0
  -49.3062   -0.8449   13.5664 C   0  0  0  0  0  0
  -48.4647   -2.8045   14.7415 C   0  0  0  0  0  0
  -50.1618   -4.5054   15.4070 C   0  0  0  0  0  0
  -49.1536    0.4535   12.8799 C   0  0  0  0  0  0
  -48.2525   -1.5045   14.0733 C   0  0  0  0  0  0
  -52.1831   -2.9468   14.2620 C   0  0  0  0  0  0
  -51.4875   -4.9395   15.4427 C   0  0  0  0  0  0
  -52.4960   -4.1621   14.8715 C   0  0  0  0  0  0
  -48.0573    0.6806   12.0442 C   0  0  0  0  0  0
  -50.1053    1.4597   13.0620 C   0  0  0  0  0  0
  -47.9134    1.9069   11.3949 C   0  0  0  0  0  0
  -49.9616    2.6859   12.4126 C   0  0  0  0  0  0
  -48.8656    2.9095   11.5792 C   0  0  0  0  0  0
  -49.6051   -6.0582   16.4139 H   0  0  0  0  0  0
  -51.4390   -6.8474   15.4936 H   0  0  0  0  0  0
  -54.3405   -3.8485   15.2409 H   0  0  0  0  0  0
  -49.6028    4.5137   10.8452 H   0  0  0  0  0  0
  1  8  1  0  0  0
  1  9  1  0  0  0
  2 11  1  0  0  0
  2 22  1  0  0  0
  3 15  1  0  0  0
  3 23  1  0  0  0
  4 16  1  0  0  0
  4 24  1  0  0  0
  5 10  2  0  0  0
  6 21  1  0  0  0
  6 25  1  0  0  0
  7  8  2  0  0  0
  7 10  1  0  0  0
  7 11  1  0  0  0
  8 14  1  0  0  0
  9 12  1  0  0  0
  9 13  2  0  0  0
 10 13  1  0  0  0
 11 15  2  0  0  0
 12 17  2  0  0  0
 12 18  1  0  0  0
 14 16  2  0  0  0
 15 16  1  0  0  0
 17 19  1  0  0  0
 18 20  2  0  0  0
 19 21  2  0  0  0
 20 21  1  0  0  0
M  END
>  <CHROM.0>
-175.35753868,-63.61783826,-175.75792593

>  <CHROM.1>
175.32881000,-68.81807704,-50.21110022,154.84409780,-140.44133871,-49.97771223
-1.69547199,13.91377308,1.28360854,-0.06328067,-0.47755819

>  <Name>
5281697

>  <PUBCHEM_ATOM_DEF_STEREO_COUNT>
0

>  <PUBCHEM_ATOM_UDEF_STEREO_COUNT>
0

>  <PUBCHEM_BOND_DEF_STEREO_COUNT>
0

>  <PUBCHEM_BOND_UDEF_STEREO_COUNT>
0

>  <PUBCHEM_CACTVS_TAUTO_COUNT>
95

>  <PUBCHEM_COMPONENT_COUNT>
1

>  <PUBCHEM_COMPOUND_CID>
5281697

>  <PUBCHEM_CONFORMER_DIVERSEORDER>
1

>  <PUBCHEM_CONFORMER_ID>
005097A100000001

>  <PUBCHEM_CONFORMER_RMSD>
0.6

>  <PUBCHEM_COORDINATE_TYPE>
2
5
10

>  <PUBCHEM_EFFECTIVE_ROTOR_COUNT>
1

>  <PUBCHEM_FEATURE_SELFOVERLAP>
45.711

>  <PUBCHEM_HEAVY_ATOM_COUNT>
21

>  <PUBCHEM_ISOTOPIC_ATOM_COUNT>
0

>  <PUBCHEM_MMFF94_ENERGY>
63.223

>  <PUBCHEM_MMFF94_PARTIAL_CHARGES>
31
1 -0.16
10 0.47
11 0.08
12 0.03
13 -0.14
14 -0.15
15 0.08
16 0.08
17 -0.15
18 -0.15
19 -0.15
2 -0.53
20 -0.15
21 0.08
22 0.15
23 0.15
24 0.15
25 0.15
26 0.15
27 0.15
28 0.45
29 0.45
3 -0.53
30 0.45
31 0.45
4 -0.53
5 -0.57
6 -0.53
7 0.09
8 0.08
9 0.05

>  <PUBCHEM_PHARMACOPHORE_FEATURES>
9
1 1 acceptor
1 2 donor
1 3 donor
1 4 donor
1 5 acceptor
1 6 donor
6 1 7 8 9 10 13 rings
6 12 17 18 19 20 21 rings
6 7 8 11 14 15 16 rings

>  <PUBCHEM_SHAPE_FINGERPRINT>
10319926 262 18339625825081195930
10411042 1 17833271204996093459
10493431 412 18339369548524999705
10498660 4 18336542707697077949
10608611 8 18342173410280654128
10646746 165 18410573976930762244
11315181 36 17967813890389513380
11578080 2 13756702948478097673
11595378 159 17530951459133022432
12107183 9 17901657173352244522
12173636 292 18409726240512267175
12236239 1 17458623445659141570
12390115 104 18270976634926273329
12403259 415 18201996655522882608
12596602 18 16660369224522060160
12916748 109 18408890624269960579
13140716 1 17974859676664193147
13402501 40 18342737420969964016
13544592 145 18270128920288381310
14790565 3 17908994201191005865
15042514 8 18191873533892405547
15196674 1 18410856529976081566
15375358 24 18343866615200910982
18186145 218 18201727214817350440
200 152 16845855685150138058
20510252 161 18342459248711938305
20645477 56 18410293622761219728
20645477 70 17203057288073627646
21033648 29 18342165666017276744
21065198 57 18411699928693820962
21236236 1 18341332275253441647
21267235 1 18336835306807786307
21279426 13 18269558226339808350
21421861 104 17750502985271953402
22122407 14 15430327897065223269
221357 26 18131628967532776153
23175994 123 17275108344395955280
23227448 37 18341048618053264060
23402539 116 18412538846827169727
23402655 69 18131068208529289652
23557571 272 18342746251538334052
23559900 14 18271526391151403446
3004659 81 18335707088557568278
335352 9 18410856568245613789
350125 39 18409452522194264837
351380 180 18342174479584923540
3545911 37 18341896294727416792
4028521 119 18341892969874116496
4073 2 18114749334839713034
4214541 1 18411419514305071984
495365 180 17346303926350983370
5104073 3 18335985259569948114
633830 44 18200025115004324501
69090 78 18343580754709273606
77779 3 18411982455700122788
9709674 26 18342463659786276182

>  <PUBCHEM_SHAPE_MULTIPOLES>
396.95
11.7
2.35
0.66
9.05
0.35
0
-3.96
0.51
-2.32
-0.07
0.24
-0.01
0.68

>  <PUBCHEM_SHAPE_SELFOVERLAP>
891.042

>  <PUBCHEM_SHAPE_VOLUME>
208.7

>  <RI>
-5.66369e+08

>  <Rbt.Current_Directory>
/root/miniconda3/envs/rdock/share/rxdock-2013.1.1_148c5bd1-0/data/ligands/prepped_ligands/Scutellarein

>  <Rbt.Executable>
rbdock/0.1.0

>  <Rbt.Library>
librxdock.so/0.1.0

>  <Rbt.Parameter_File>
/root/miniconda3/envs/rdock/share/rxdock-2013.1.1_148c5bd1-0/data/scripts/dock.prm

>  <Rbt.Receptor>
def.prm

>  <SCORE>
-16.0816

>  <SCORE.INTER>
-19.8509

>  <SCORE.INTER.CONST>
1

>  <SCORE.INTER.POLAR>
-1.35367

>  <SCORE.INTER.REPUL>
0

>  <SCORE.INTER.ROT>
1

>  <SCORE.INTER.VDW>
-21.6484

>  <SCORE.INTER.norm>
-0.94528

>  <SCORE.INTRA>
4.74552

>  <SCORE.INTRA.DIHEDRAL>
8.58

>  <SCORE.INTRA.DIHEDRAL.0>
1.23292

>  <SCORE.INTRA.POLAR>
0.398136

>  <SCORE.INTRA.POLAR.0>
-0.398136

>  <SCORE.INTRA.REPUL>
0

>  <SCORE.INTRA.REPUL.0>
0

>  <SCORE.INTRA.VDW>
-0.898143

>  <SCORE.INTRA.VDW.0>
1.00302

>  <SCORE.INTRA.norm>
0.225977

>  <SCORE.RESTR>
0.0534473

>  <SCORE.RESTR.CAVITY>
0.0534473

>  <SCORE.RESTR.norm>
0.00254511

>  <SCORE.SYSTEM>
-1.02968

>  <SCORE.SYSTEM.CONST>
0

>  <SCORE.SYSTEM.DIHEDRAL>
0.1549

>  <SCORE.SYSTEM.POLAR>
-0.0109487

>  <SCORE.SYSTEM.VDW>
-1.0699

>  <SCORE.SYSTEM.norm>
-0.0490322

>  <SCORE.heavy>
21

>  <SCORE.norm>
-0.76579

$$$$
5281697
  RxDock  02242101393D
librxdock.so/0.1.0
 25 27  0  0  0  0  0  0  0  0999 V2000
  -51.7781   -4.3860   15.0298 O   0  0  0  0  0  0
  -50.5173    0.0503   16.5035 O   0  0  0  0  0  0
  -48.6831    0.1570   14.4854 O   0  0  0  0  0  0
  -48.3883   -1.9770   12.7524 O   0  0  0  0  0  0
  -52.3722   -1.3544   17.6859 O   0  0  0  0  0  0
  -55.5707   -9.3372   16.0673 O   0  0  0  0  0  0
  -51.1839   -2.1642   15.8107 C   0  0  0  0  0  0
  -51.0331   -3.2380   14.9352 C   0  0  0  0  0  0
  -52.7162   -4.4828   16.0463 C   0  0  0  0  0  0
  -52.1845   -2.2594   16.8847 C   0  0  0  0  0  0
  -50.3978   -1.0187   15.6662 C   0  0  0  0  0  0
  -53.4650   -5.7554   16.0526 C   0  0  0  0  0  0
  -52.9587   -3.5157   16.9455 C   0  0  0  0  0  0
  -50.0925   -3.1723   13.9069 C   0  0  0  0  0  0
  -49.4574   -0.9559   14.6370 C   0  0  0  0  0  0
  -49.3051   -2.0302   13.7593 C   0  0  0  0  0  0
  -54.7411   -5.8215   15.4879 C   0  0  0  0  0  0
  -52.9001   -6.8991   16.6221 C   0  0  0  0  0  0
  -55.4483   -7.0239   15.4931 C   0  0  0  0  0  0
  -53.6071   -8.1016   16.6271 C   0  0  0  0  0  0
  -54.8812   -8.1639   16.0627 C   0  0  0  0  0  0
  -49.7183    0.5981   16.4780 H   0  0  0  0  0  0
  -48.1243    0.0370   13.6980 H   0  0  0  0  0  0
  -48.2778   -2.8739   12.3919 H   0  0  0  0  0  0
  -54.9373  -10.0749   16.0929 H   0  0  0  0  0  0
  1  8  1  0  0  0
  1  9  1  0  0  0
  2 11  1  0  0  0
  2 22  1  0  0  0
  3 15  1  0  0  0
  3 23  1  0  0  0
  4 16  1  0  0  0
  4 24  1  0  0  0
  5 10  2  0  0  0
  6 21  1  0  0  0
  6 25  1  0  0  0
  7  8  2  0  0  0
  7 10  1  0  0  0
  7 11  1  0  0  0
  8 14  1  0  0  0
  9 12  1  0  0  0
  9 13  2  0  0  0
 10 13  1  0  0  0
 11 15  2  0  0  0
 12 17  2  0  0  0
 12 18  1  0  0  0
 14 16  2  0  0  0
 15 16  1  0  0  0
 17 19  1  0  0  0
 18 20  2  0  0  0
 19 21  2  0  0  0
 20 21  1  0  0  0
M  END
>  <CHROM.0>
63.73387452,63.02876986,-61.73753074

>  <CHROM.1>
159.44121386,-177.26597786,-13.35185052,153.52210534,-98.79806128,-51.92411472
-3.81743050,15.57125556,-2.50499787,0.74392866,0.55062807

>  <Name>
5281697

>  <PUBCHEM_ATOM_DEF_STEREO_COUNT>
0

>  <PUBCHEM_ATOM_UDEF_STEREO_COUNT>
0

>  <PUBCHEM_BOND_DEF_STEREO_COUNT>
0

>  <PUBCHEM_BOND_UDEF_STEREO_COUNT>
0

>  <PUBCHEM_CACTVS_TAUTO_COUNT>
95

>  <PUBCHEM_COMPONENT_COUNT>
1

>  <PUBCHEM_COMPOUND_CID>
5281697

>  <PUBCHEM_CONFORMER_DIVERSEORDER>
1

>  <PUBCHEM_CONFORMER_ID>
005097A100000001

>  <PUBCHEM_CONFORMER_RMSD>
0.6

>  <PUBCHEM_COORDINATE_TYPE>
2
5
10

>  <PUBCHEM_EFFECTIVE_ROTOR_COUNT>
1

>  <PUBCHEM_FEATURE_SELFOVERLAP>
45.711

>  <PUBCHEM_HEAVY_ATOM_COUNT>
21

>  <PUBCHEM_ISOTOPIC_ATOM_COUNT>
0

>  <PUBCHEM_MMFF94_ENERGY>
63.223

>  <PUBCHEM_MMFF94_PARTIAL_CHARGES>
31
1 -0.16
10 0.47
11 0.08
12 0.03
13 -0.14
14 -0.15
15 0.08
16 0.08
17 -0.15
18 -0.15
19 -0.15
2 -0.53
20 -0.15
21 0.08
22 0.15
23 0.15
24 0.15
25 0.15
26 0.15
27 0.15
28 0.45
29 0.45
3 -0.53
30 0.45
31 0.45
4 -0.53
5 -0.57
6 -0.53
7 0.09
8 0.08
9 0.05

>  <PUBCHEM_PHARMACOPHORE_FEATURES>
9
1 1 acceptor
1 2 donor
1 3 donor
1 4 donor
1 5 acceptor
1 6 donor
6 1 7 8 9 10 13 rings
6 12 17 18 19 20 21 rings
6 7 8 11 14 15 16 rings

>  <PUBCHEM_SHAPE_FINGERPRINT>
10319926 262 18339625825081195930
10411042 1 17833271204996093459
10493431 412 18339369548524999705
10498660 4 18336542707697077949
10608611 8 18342173410280654128
10646746 165 18410573976930762244
11315181 36 17967813890389513380
11578080 2 13756702948478097673
11595378 159 17530951459133022432
12107183 9 17901657173352244522
12173636 292 18409726240512267175
12236239 1 17458623445659141570
12390115 104 18270976634926273329
12403259 415 18201996655522882608
12596602 18 16660369224522060160
12916748 109 18408890624269960579
13140716 1 17974859676664193147
13402501 40 18342737420969964016
13544592 145 18270128920288381310
14790565 3 17908994201191005865
15042514 8 18191873533892405547
15196674 1 18410856529976081566
15375358 24 18343866615200910982
18186145 218 18201727214817350440
200 152 16845855685150138058
20510252 161 18342459248711938305
20645477 56 18410293622761219728
20645477 70 17203057288073627646
21033648 29 18342165666017276744
21065198 57 18411699928693820962
21236236 1 18341332275253441647
21267235 1 18336835306807786307
21279426 13 18269558226339808350
21421861 104 17750502985271953402
22122407 14 15430327897065223269
221357 26 18131628967532776153
23175994 123 17275108344395955280
23227448 37 18341048618053264060
23402539 116 18412538846827169727
23402655 69 18131068208529289652
23557571 272 18342746251538334052
23559900 14 18271526391151403446
3004659 81 18335707088557568278
335352 9 18410856568245613789
350125 39 18409452522194264837
351380 180 18342174479584923540
3545911 37 18341896294727416792
4028521 119 18341892969874116496
4073 2 18114749334839713034
4214541 1 18411419514305071984
495365 180 17346303926350983370
5104073 3 18335985259569948114
633830 44 18200025115004324501
69090 78 18343580754709273606
77779 3 18411982455700122788
9709674 26 18342463659786276182

>  <PUBCHEM_SHAPE_MULTIPOLES>
396.95
11.7
2.35
0.66
9.05
0.35
0
-3.96
0.51
-2.32
-0.07
0.24
-0.01
0.68

>  <PUBCHEM_SHAPE_SELFOVERLAP>
891.042

>  <PUBCHEM_SHAPE_VOLUME>
208.7

>  <RI>
-5.66369e+08

>  <Rbt.Current_Directory>
/root/miniconda3/envs/rdock/share/rxdock-2013.1.1_148c5bd1-0/data/ligands/prepped_ligands/Scutellarein

>  <Rbt.Executable>
rbdock/0.1.0

>  <Rbt.Library>
librxdock.so/0.1.0

>  <Rbt.Parameter_File>
/root/miniconda3/envs/rdock/share/rxdock-2013.1.1_148c5bd1-0/data/scripts/dock.prm

>  <Rbt.Receptor>
def.prm

>  <SCORE>
-10.7647

>  <SCORE.INTER>
-12.0434

>  <SCORE.INTER.CONST>
1

>  <SCORE.INTER.POLAR>
-0.598301

>  <SCORE.INTER.REPUL>
0.168832

>  <SCORE.INTER.ROT>
1

>  <SCORE.INTER.VDW>
-17.2533

>  <SCORE.INTER.norm>
-0.573495

>  <SCORE.INTRA>
2.25664

>  <SCORE.INTRA.DIHEDRAL>
5.25356

>  <SCORE.INTRA.DIHEDRAL.0>
1.23292

>  <SCORE.INTRA.POLAR>
0.136519

>  <SCORE.INTRA.POLAR.0>
-0.398136

>  <SCORE.INTRA.REPUL>
0

>  <SCORE.INTRA.REPUL.0>
0

>  <SCORE.INTRA.VDW>
-0.834304

>  <SCORE.INTRA.VDW.0>
1.00302

>  <SCORE.INTRA.norm>
0.107459

>  <SCORE.RESTR>
0.0116889

>  <SCORE.RESTR.CAVITY>
0.0116889

>  <SCORE.RESTR.norm>
0.000556615

>  <SCORE.SYSTEM>
-0.98961

>  <SCORE.SYSTEM.CONST>
0

>  <SCORE.SYSTEM.DIHEDRAL>
0.0857807

>  <SCORE.SYSTEM.VDW>
-1.0325

>  <SCORE.SYSTEM.norm>
-0.0471243

>  <SCORE.heavy>
21

>  <SCORE.norm>
-0.512604

$$$$
5281697
  RxDock  02242101393D
librxdock.so/0.1.0
 25 27  0  0  0  0  0  0  0  0999 V2000
  -50.3979   -3.1243   15.0853 O   0  0  0  0  0  0
  -45.6982   -2.7765   16.1967 O   0  0  0  0  0  0
  -45.4979   -0.6395   14.5111 O   0  0  0  0  0  0
  -47.7141    0.2550   13.1211 O   0  0  0  0  0  0
  -47.2598   -4.5970   17.2261 O   0  0  0  0  0  0
  -55.7699   -6.2979   16.1119 O   0  0  0  0  0  0
  -48.0458   -2.9945   15.6774 C   0  0  0  0  0  0
  -49.1612   -2.5408   14.9754 C   0  0  0  0  0  0
  -50.5400   -4.2177   15.9262 C   0  0  0  0  0  0
  -48.1948   -4.1483   16.5774 C   0  0  0  0  0  0
  -46.8103   -2.3605   15.5270 C   0  0  0  0  0  0
  -51.9113   -4.7634   15.9741 C   0  0  0  0  0  0
  -49.5447   -4.7421   16.6588 C   0  0  0  0  0  0
  -49.0471   -1.4472   14.1167 C   0  0  0  0  0  0
  -46.6990   -1.2671   14.6671 C   0  0  0  0  0  0
  -47.8148   -0.8114   13.9635 C   0  0  0  0  0  0
  -52.1365   -6.0531   16.4618 C   0  0  0  0  0  0
  -52.9892   -3.9922   15.5331 C   0  0  0  0  0  0
  -53.4320   -6.5684   16.5078 C   0  0  0  0  0  0
  -54.2847   -4.5074   15.5793 C   0  0  0  0  0  0
  -54.5060   -5.7955   16.0666 C   0  0  0  0  0  0
  -44.9401   -2.8426   15.5967 H   0  0  0  0  0  0
  -44.9430   -0.8425   15.2841 H   0  0  0  0  0  0
  -46.8585    0.2014   12.6610 H   0  0  0  0  0  0
  -55.7220   -7.2604   16.2435 H   0  0  0  0  0  0
  1  8  1  0  0  0
  1  9  1  0  0  0
  2 11  1  0  0  0
  2 22  1  0  0  0
  3 15  1  0  0  0
  3 23  1  0  0  0
  4 16  1  0  0  0
  4 24  1  0  0  0
  5 10  2  0  0  0
  6 21  1  0  0  0
  6 25  1  0  0  0
  7  8  2  0  0  0
  7 10  1  0  0  0
  7 11  1  0  0  0
  8 14  1  0  0  0
  9 12  1  0  0  0
  9 13  2  0  0  0
 10 13  1  0  0  0
 11 15  2  0  0  0
 12 17  2  0  0  0
 12 18  1  0  0  0
 14 16  2  0  0  0
 15 16  1  0  0  0
 17 19  1  0  0  0
 18 20  2  0  0  0
 19 21  2  0  0  0
 20 21  1  0  0  0
M  END
>  <CHROM.0>
178.47846648,-65.99416441,-179.96431401

>  <CHROM.1>
132.89290496,-21.20545805,-141.71145612,-15.06674257,162.13590885,-49.80016490
-3.45290943,15.52880161,2.63308591,0.20782781,2.48998814

>  <Name>
5281697

>  <PUBCHEM_ATOM_DEF_STEREO_COUNT>
0

>  <PUBCHEM_ATOM_UDEF_STEREO_COUNT>
0

>  <PUBCHEM_BOND_DEF_STEREO_COUNT>
0

>  <PUBCHEM_BOND_UDEF_STEREO_COUNT>
0

>  <PUBCHEM_CACTVS_TAUTO_COUNT>
95

>  <PUBCHEM_COMPONENT_COUNT>
1

>  <PUBCHEM_COMPOUND_CID>
5281697

>  <PUBCHEM_CONFORMER_DIVERSEORDER>
1

>  <PUBCHEM_CONFORMER_ID>
005097A100000001

>  <PUBCHEM_CONFORMER_RMSD>
0.6

>  <PUBCHEM_COORDINATE_TYPE>
2
5
10

>  <PUBCHEM_EFFECTIVE_ROTOR_COUNT>
1

>  <PUBCHEM_FEATURE_SELFOVERLAP>
45.711

>  <PUBCHEM_HEAVY_ATOM_COUNT>
21

>  <PUBCHEM_ISOTOPIC_ATOM_COUNT>
0

>  <PUBCHEM_MMFF94_ENERGY>
63.223

>  <PUBCHEM_MMFF94_PARTIAL_CHARGES>
31
1 -0.16
10 0.47
11 0.08
12 0.03
13 -0.14
14 -0.15
15 0.08
16 0.08
17 -0.15
18 -0.15
19 -0.15
2 -0.53
20 -0.15
21 0.08
22 0.15
23 0.15
24 0.15
25 0.15
26 0.15
27 0.15
28 0.45
29 0.45
3 -0.53
30 0.45
31 0.45
4 -0.53
5 -0.57
6 -0.53
7 0.09
8 0.08
9 0.05

>  <PUBCHEM_PHARMACOPHORE_FEATURES>
9
1 1 acceptor
1 2 donor
1 3 donor
1 4 donor
1 5 acceptor
1 6 donor
6 1 7 8 9 10 13 rings
6 12 17 18 19 20 21 rings
6 7 8 11 14 15 16 rings

>  <PUBCHEM_SHAPE_FINGERPRINT>
10319926 262 18339625825081195930
10411042 1 17833271204996093459
10493431 412 18339369548524999705
10498660 4 18336542707697077949
10608611 8 18342173410280654128
10646746 165 18410573976930762244
11315181 36 17967813890389513380
11578080 2 13756702948478097673
11595378 159 17530951459133022432
12107183 9 17901657173352244522
12173636 292 18409726240512267175
12236239 1 17458623445659141570
12390115 104 18270976634926273329
12403259 415 18201996655522882608
12596602 18 16660369224522060160
12916748 109 18408890624269960579
13140716 1 17974859676664193147
13402501 40 18342737420969964016
13544592 145 18270128920288381310
14790565 3 17908994201191005865
15042514 8 18191873533892405547
15196674 1 18410856529976081566
15375358 24 18343866615200910982
18186145 218 18201727214817350440
200 152 16845855685150138058
20510252 161 18342459248711938305
20645477 56 18410293622761219728
20645477 70 17203057288073627646
21033648 29 18342165666017276744
21065198 57 18411699928693820962
21236236 1 18341332275253441647
21267235 1 18336835306807786307
21279426 13 18269558226339808350
21421861 104 17750502985271953402
22122407 14 15430327897065223269
221357 26 18131628967532776153
23175994 123 17275108344395955280
23227448 37 18341048618053264060
23402539 116 18412538846827169727
23402655 69 18131068208529289652
23557571 272 18342746251538334052
23559900 14 18271526391151403446
3004659 81 18335707088557568278
335352 9 18410856568245613789
350125 39 18409452522194264837
351380 180 18342174479584923540
3545911 37 18341896294727416792
4028521 119 18341892969874116496
4073 2 18114749334839713034
4214541 1 18411419514305071984
495365 180 17346303926350983370
5104073 3 18335985259569948114
633830 44 18200025115004324501
69090 78 18343580754709273606
77779 3 18411982455700122788
9709674 26 18342463659786276182

>  <PUBCHEM_SHAPE_MULTIPOLES>
396.95
11.7
2.35
0.66
9.05
0.35
0
-3.96
0.51
-2.32
-0.07
0.24
-0.01
0.68

>  <PUBCHEM_SHAPE_SELFOVERLAP>
891.042

>  <PUBCHEM_SHAPE_VOLUME>
208.7

>  <RI>
-5.66369e+08

>  <Rbt.Current_Directory>
/root/miniconda3/envs/rdock/share/rxdock-2013.1.1_148c5bd1-0/data/ligands/prepped_ligands/Scutellarein

>  <Rbt.Executable>
rbdock/0.1.0

>  <Rbt.Library>
librxdock.so/0.1.0

>  <Rbt.Parameter_File>
/root/miniconda3/envs/rdock/share/rxdock-2013.1.1_148c5bd1-0/data/scripts/dock.prm

>  <Rbt.Receptor>
def.prm

>  <SCORE>
-14.6391

>  <SCORE.INTER>
-16.9582

>  <SCORE.INTER.CONST>
1

>  <SCORE.INTER.POLAR>
-1.91112

>  <SCORE.INTER.REPUL>
0

>  <SCORE.INTER.ROT>
1

>  <SCORE.INTER.VDW>
-16.8603

>  <SCORE.INTER.norm>
-0.807532

>  <SCORE.INTRA>
3.36663

>  <SCORE.INTRA.DIHEDRAL>
4.61168

>  <SCORE.INTRA.DIHEDRAL.0>
1.23292

>  <SCORE.INTRA.POLAR>
0.398136

>  <SCORE.INTRA.POLAR.0>
-0.398136

>  <SCORE.INTRA.REPUL>
0

>  <SCORE.INTRA.REPUL.0>
0

>  <SCORE.INTRA.VDW>
-0.292869

>  <SCORE.INTRA.VDW.0>
1.00302

>  <SCORE.INTRA.norm>
0.160316

>  <SCORE.RESTR>
0

>  <SCORE.RESTR.CAVITY>
0

>  <SCORE.RESTR.norm>
0

>  <SCORE.SYSTEM>
-1.0476

>  <SCORE.SYSTEM.CONST>
0

>  <SCORE.SYSTEM.DIHEDRAL>
0.182864

>  <SCORE.SYSTEM.POLAR>
-0.00207949

>  <SCORE.SYSTEM.VDW>
-1.13196

>  <SCORE.SYSTEM.norm>
-0.0498855

>  <SCORE.heavy>
21

>  <SCORE.norm>
-0.697101

$$$$
