5281697
  RxDock  02242113243D
librxdock.so/0.1.0
 25 27  0  0  0  0  0  0  0  0999 V2000
  -51.5464   -3.1815   14.9798 O   0  0  0  0  0  0
  -46.7256   -2.7575   15.1324 O   0  0  0  0  0  0
  -46.9447   -0.2949   13.9765 O   0  0  0  0  0  0
  -49.4302    0.7246   13.3232 O   0  0  0  0  0  0
  -47.9850   -4.8635   16.0218 O   0  0  0  0  0  0
  -56.4951   -6.8698   16.3546 O   0  0  0  0  0  0
  -49.1250   -3.0202   15.0801 C   0  0  0  0  0  0
  -50.3764   -2.5031   14.7499 C   0  0  0  0  0  0
  -51.4777   -4.4394   15.5591 C   0  0  0  0  0  0
  -49.0487   -4.3504   15.7033 C   0  0  0  0  0  0
  -47.9660   -2.2839   14.8236 C   0  0  0  0  0  0
  -52.7934   -5.0769   15.7669 C   0  0  0  0  0  0
  -50.3351   -5.0405   15.9274 C   0  0  0  0  0  0
  -50.4764   -1.2430   14.1596 C   0  0  0  0  0  0
  -48.0690   -1.0239   14.2327 C   0  0  0  0  0  0
  -49.3213   -0.5045   13.9014 C   0  0  0  0  0  0
  -52.8702   -6.4140   16.1643 C   0  0  0  0  0  0
  -53.9667   -4.3454   15.5681 C   0  0  0  0  0  0
  -54.1130   -7.0161   16.3613 C   0  0  0  0  0  0
  -55.2095   -4.9474   15.7653 C   0  0  0  0  0  0
  -55.2826   -6.2828   16.1618 C   0  0  0  0  0  0
  -46.6813   -3.7166   15.0014 H   0  0  0  0  0  0
  -46.3310   -0.8480   13.4626 H   0  0  0  0  0  0
  -50.3345    1.0525   13.4697 H   0  0  0  0  0  0
  -56.3884   -7.8355   16.3101 H   0  0  0  0  0  0
  1  8  1  0  0  0
  1  9  1  0  0  0
  2 11  1  0  0  0
  2 22  1  0  0  0
  3 15  1  0  0  0
  3 23  1  0  0  0
  4 16  1  0  0  0
  4 24  1  0  0  0
  5 10  2  0  0  0
  6 21  1  0  0  0
  6 25  1  0  0  0
  7  8  2  0  0  0
  7 10  1  0  0  0
  7 11  1  0  0  0
  8 14  1  0  0  0
  9 12  1  0  0  0
  9 13  2  0  0  0
 10 13  1  0  0  0
 11 15  2  0  0  0
 12 17  2  0  0  0
 12 18  1  0  0  0
 14 16  2  0  0  0
 15 16  1  0  0  0
 17 19  1  0  0  0
 18 20  2  0  0  0
 19 21  2  0  0  0
 20 21  1  0  0  0
M  END
>  <CHROM.0>
176.41101678,-60.08023897,-45.55853824

>  <CHROM.1>
35.28456796,53.00413980,20.93572602,-20.05760905,170.96939693,-50.86734183
-3.56023323,15.20252860,2.48238957,0.04959077,2.72676752

>  <Name>
5281697

>  <PUBCHEM_ATOM_DEF_STEREO_COUNT>
0

>  <PUBCHEM_ATOM_UDEF_STEREO_COUNT>
0

>  <PUBCHEM_BOND_DEF_STEREO_COUNT>
0

>  <PUBCHEM_BOND_UDEF_STEREO_COUNT>
0

>  <PUBCHEM_CACTVS_TAUTO_COUNT>
95

>  <PUBCHEM_COMPONENT_COUNT>
1

>  <PUBCHEM_COMPOUND_CID>
5281697

>  <PUBCHEM_CONFORMER_DIVERSEORDER>
1

>  <PUBCHEM_CONFORMER_ID>
005097A100000001

>  <PUBCHEM_CONFORMER_RMSD>
0.6

>  <PUBCHEM_COORDINATE_TYPE>
2
5
10

>  <PUBCHEM_EFFECTIVE_ROTOR_COUNT>
1

>  <PUBCHEM_FEATURE_SELFOVERLAP>
45.711

>  <PUBCHEM_HEAVY_ATOM_COUNT>
21

>  <PUBCHEM_ISOTOPIC_ATOM_COUNT>
0

>  <PUBCHEM_MMFF94_ENERGY>
63.223

>  <PUBCHEM_MMFF94_PARTIAL_CHARGES>
31
1 -0.16
10 0.47
11 0.08
12 0.03
13 -0.14
14 -0.15
15 0.08
16 0.08
17 -0.15
18 -0.15
19 -0.15
2 -0.53
20 -0.15
21 0.08
22 0.15
23 0.15
24 0.15
25 0.15
26 0.15
27 0.15
28 0.45
29 0.45
3 -0.53
30 0.45
31 0.45
4 -0.53
5 -0.57
6 -0.53
7 0.09
8 0.08
9 0.05

>  <PUBCHEM_PHARMACOPHORE_FEATURES>
9
1 1 acceptor
1 2 donor
1 3 donor
1 4 donor
1 5 acceptor
1 6 donor
6 1 7 8 9 10 13 rings
6 12 17 18 19 20 21 rings
6 7 8 11 14 15 16 rings

>  <PUBCHEM_SHAPE_FINGERPRINT>
10319926 262 18339625825081195930
10411042 1 17833271204996093459
10493431 412 18339369548524999705
10498660 4 18336542707697077949
10608611 8 18342173410280654128
10646746 165 18410573976930762244
11315181 36 17967813890389513380
11578080 2 13756702948478097673
11595378 159 17530951459133022432
12107183 9 17901657173352244522
12173636 292 18409726240512267175
12236239 1 17458623445659141570
12390115 104 18270976634926273329
12403259 415 18201996655522882608
12596602 18 16660369224522060160
12916748 109 18408890624269960579
13140716 1 17974859676664193147
13402501 40 18342737420969964016
13544592 145 18270128920288381310
14790565 3 17908994201191005865
15042514 8 18191873533892405547
15196674 1 18410856529976081566
15375358 24 18343866615200910982
18186145 218 18201727214817350440
200 152 16845855685150138058
20510252 161 18342459248711938305
20645477 56 18410293622761219728
20645477 70 17203057288073627646
21033648 29 18342165666017276744
21065198 57 18411699928693820962
21236236 1 18341332275253441647
21267235 1 18336835306807786307
21279426 13 18269558226339808350
21421861 104 17750502985271953402
22122407 14 15430327897065223269
221357 26 18131628967532776153
23175994 123 17275108344395955280
23227448 37 18341048618053264060
23402539 116 18412538846827169727
23402655 69 18131068208529289652
23557571 272 18342746251538334052
23559900 14 18271526391151403446
3004659 81 18335707088557568278
335352 9 18410856568245613789
350125 39 18409452522194264837
351380 180 18342174479584923540
3545911 37 18341896294727416792
4028521 119 18341892969874116496
4073 2 18114749334839713034
4214541 1 18411419514305071984
495365 180 17346303926350983370
5104073 3 18335985259569948114
633830 44 18200025115004324501
69090 78 18343580754709273606
77779 3 18411982455700122788
9709674 26 18342463659786276182

>  <PUBCHEM_SHAPE_MULTIPOLES>
396.95
11.7
2.35
0.66
9.05
0.35
0
-3.96
0.51
-2.32
-0.07
0.24
-0.01
0.68

>  <PUBCHEM_SHAPE_SELFOVERLAP>
891.042

>  <PUBCHEM_SHAPE_VOLUME>
208.7

>  <RI>
-6.90277e+08

>  <Rbt.Current_Directory>
/root/miniconda3/envs/rdock/share/rxdock-2013.1.1_148c5bd1-0/data/ligands/prepped_ligands/Scutellarein

>  <Rbt.Executable>
rbdock/0.1.0

>  <Rbt.Library>
librxdock.so/0.1.0

>  <Rbt.Parameter_File>
/root/miniconda3/envs/rdock/share/rxdock-2013.1.1_148c5bd1-0/data/scripts/dock.prm

>  <Rbt.Receptor>
def.prm

>  <SCORE>
-16.7137

>  <SCORE.INTER>
-19.6647

>  <SCORE.INTER.CONST>
1

>  <SCORE.INTER.POLAR>
-2.65944

>  <SCORE.INTER.REPUL>
0.111832

>  <SCORE.INTER.ROT>
1

>  <SCORE.INTER.VDW>
-17.5818

>  <SCORE.INTER.norm>
-0.936415

>  <SCORE.INTRA>
3.66254

>  <SCORE.INTRA.DIHEDRAL>
4.73907

>  <SCORE.INTRA.DIHEDRAL.0>
1.23292

>  <SCORE.INTRA.POLAR>
0.398136

>  <SCORE.INTRA.POLAR.0>
-0.398136

>  <SCORE.INTRA.REPUL>
0

>  <SCORE.INTRA.REPUL.0>
0

>  <SCORE.INTRA.VDW>
-0.060661

>  <SCORE.INTRA.VDW.0>
1.00302

>  <SCORE.INTRA.norm>
0.174406

>  <SCORE.RESTR>
0

>  <SCORE.RESTR.CAVITY>
0

>  <SCORE.RESTR.norm>
0

>  <SCORE.SYSTEM>
-0.711574

>  <SCORE.SYSTEM.CONST>
0

>  <SCORE.SYSTEM.DIHEDRAL>
0.514374

>  <SCORE.SYSTEM.POLAR>
-0.0199591

>  <SCORE.SYSTEM.VDW>
-0.9009

>  <SCORE.SYSTEM.norm>
-0.0338845

>  <SCORE.heavy>
21

>  <SCORE.norm>
-0.795893

$$$$
5281697
  RxDock  02242113243D
librxdock.so/0.1.0
 25 27  0  0  0  0  0  0  0  0999 V2000
  -49.8229   -3.4855   15.8225 O   0  0  0  0  0  0
  -47.5039    0.1131   13.5608 O   0  0  0  0  0  0
  -45.2169   -0.5868   14.8753 O   0  0  0  0  0  0
  -45.2188   -2.7092   16.6471 O   0  0  0  0  0  0
  -50.0338   -0.3981   13.1725 O   0  0  0  0  0  0
  -55.3419   -6.4880   16.5339 O   0  0  0  0  0  0
  -48.7079   -1.6666   14.6614 C   0  0  0  0  0  0
  -48.7053   -2.7362   15.5550 C   0  0  0  0  0  0
  -51.0073   -3.1575   15.1803 C   0  0  0  0  0  0
  -49.9601   -1.3215   13.9713 C   0  0  0  0  0  0
  -47.5390   -0.9388   14.4271 C   0  0  0  0  0  0
  -52.1441   -4.0302   15.5358 C   0  0  0  0  0  0
  -51.1348   -2.1561   14.2951 C   0  0  0  0  0  0
  -47.5302   -3.0853   16.2211 C   0  0  0  0  0  0
  -46.3651   -1.2900   15.0951 C   0  0  0  0  0  0
  -46.3607   -2.3608   15.9901 C   0  0  0  0  0  0
  -53.3495   -3.9321   14.8363 C   0  0  0  0  0  0
  -52.0189   -4.9585   16.5721 C   0  0  0  0  0  0
  -54.4233   -4.7571   15.1716 C   0  0  0  0  0  0
  -53.0925   -5.7836   16.9073 C   0  0  0  0  0  0
  -54.2947   -5.6828   16.2071 C   0  0  0  0  0  0
  -46.7621    0.0256   12.9434 H   0  0  0  0  0  0
  -44.5046   -0.9905   15.4010 H   0  0  0  0  0  0
  -45.4138   -3.4758   17.2137 H   0  0  0  0  0  0
  -54.9974   -7.3441   16.8410 H   0  0  0  0  0  0
  1  8  1  0  0  0
  1  9  1  0  0  0
  2 11  1  0  0  0
  2 22  1  0  0  0
  3 15  1  0  0  0
  3 23  1  0  0  0
  4 16  1  0  0  0
  4 24  1  0  0  0
  5 10  2  0  0  0
  6 21  1  0  0  0
  6 25  1  0  0  0
  7  8  2  0  0  0
  7 10  1  0  0  0
  7 11  1  0  0  0
  8 14  1  0  0  0
  9 12  1  0  0  0
  9 13  2  0  0  0
 10 13  1  0  0  0
 11 15  2  0  0  0
 12 17  2  0  0  0
 12 18  1  0  0  0
 14 16  2  0  0  0
 15 16  1  0  0  0
 17 19  1  0  0  0
 18 20  2  0  0  0
 19 21  2  0  0  0
 20 21  1  0  0  0
M  END
>  <CHROM.0>
178.66876455,-62.40001186,56.50761429

>  <CHROM.1>
-130.26144891,-178.20845525,0.54466390,147.26793492,-171.45610236,-49.90616452
-2.89413055,15.29286346,-2.68108563,-0.25008813,-0.71090866

>  <Name>
5281697

>  <PUBCHEM_ATOM_DEF_STEREO_COUNT>
0

>  <PUBCHEM_ATOM_UDEF_STEREO_COUNT>
0

>  <PUBCHEM_BOND_DEF_STEREO_COUNT>
0

>  <PUBCHEM_BOND_UDEF_STEREO_COUNT>
0

>  <PUBCHEM_CACTVS_TAUTO_COUNT>
95

>  <PUBCHEM_COMPONENT_COUNT>
1

>  <PUBCHEM_COMPOUND_CID>
5281697

>  <PUBCHEM_CONFORMER_DIVERSEORDER>
1

>  <PUBCHEM_CONFORMER_ID>
005097A100000001

>  <PUBCHEM_CONFORMER_RMSD>
0.6

>  <PUBCHEM_COORDINATE_TYPE>
2
5
10

>  <PUBCHEM_EFFECTIVE_ROTOR_COUNT>
1

>  <PUBCHEM_FEATURE_SELFOVERLAP>
45.711

>  <PUBCHEM_HEAVY_ATOM_COUNT>
21

>  <PUBCHEM_ISOTOPIC_ATOM_COUNT>
0

>  <PUBCHEM_MMFF94_ENERGY>
63.223

>  <PUBCHEM_MMFF94_PARTIAL_CHARGES>
31
1 -0.16
10 0.47
11 0.08
12 0.03
13 -0.14
14 -0.15
15 0.08
16 0.08
17 -0.15
18 -0.15
19 -0.15
2 -0.53
20 -0.15
21 0.08
22 0.15
23 0.15
24 0.15
25 0.15
26 0.15
27 0.15
28 0.45
29 0.45
3 -0.53
30 0.45
31 0.45
4 -0.53
5 -0.57
6 -0.53
7 0.09
8 0.08
9 0.05

>  <PUBCHEM_PHARMACOPHORE_FEATURES>
9
1 1 acceptor
1 2 donor
1 3 donor
1 4 donor
1 5 acceptor
1 6 donor
6 1 7 8 9 10 13 rings
6 12 17 18 19 20 21 rings
6 7 8 11 14 15 16 rings

>  <PUBCHEM_SHAPE_FINGERPRINT>
10319926 262 18339625825081195930
10411042 1 17833271204996093459
10493431 412 18339369548524999705
10498660 4 18336542707697077949
10608611 8 18342173410280654128
10646746 165 18410573976930762244
11315181 36 17967813890389513380
11578080 2 13756702948478097673
11595378 159 17530951459133022432
12107183 9 17901657173352244522
12173636 292 18409726240512267175
12236239 1 17458623445659141570
12390115 104 18270976634926273329
12403259 415 18201996655522882608
12596602 18 16660369224522060160
12916748 109 18408890624269960579
13140716 1 17974859676664193147
13402501 40 18342737420969964016
13544592 145 18270128920288381310
14790565 3 17908994201191005865
15042514 8 18191873533892405547
15196674 1 18410856529976081566
15375358 24 18343866615200910982
18186145 218 18201727214817350440
200 152 16845855685150138058
20510252 161 18342459248711938305
20645477 56 18410293622761219728
20645477 70 17203057288073627646
21033648 29 18342165666017276744
21065198 57 18411699928693820962
21236236 1 18341332275253441647
21267235 1 18336835306807786307
21279426 13 18269558226339808350
21421861 104 17750502985271953402
22122407 14 15430327897065223269
221357 26 18131628967532776153
23175994 123 17275108344395955280
23227448 37 18341048618053264060
23402539 116 18412538846827169727
23402655 69 18131068208529289652
23557571 272 18342746251538334052
23559900 14 18271526391151403446
3004659 81 18335707088557568278
335352 9 18410856568245613789
350125 39 18409452522194264837
351380 180 18342174479584923540
3545911 37 18341896294727416792
4028521 119 18341892969874116496
4073 2 18114749334839713034
4214541 1 18411419514305071984
495365 180 17346303926350983370
5104073 3 18335985259569948114
633830 44 18200025115004324501
69090 78 18343580754709273606
77779 3 18411982455700122788
9709674 26 18342463659786276182

>  <PUBCHEM_SHAPE_MULTIPOLES>
396.95
11.7
2.35
0.66
9.05
0.35
0
-3.96
0.51
-2.32
-0.07
0.24
-0.01
0.68

>  <PUBCHEM_SHAPE_SELFOVERLAP>
891.042

>  <PUBCHEM_SHAPE_VOLUME>
208.7

>  <RI>
-6.90277e+08

>  <Rbt.Current_Directory>
/root/miniconda3/envs/rdock/share/rxdock-2013.1.1_148c5bd1-0/data/ligands/prepped_ligands/Scutellarein

>  <Rbt.Executable>
rbdock/0.1.0

>  <Rbt.Library>
librxdock.so/0.1.0

>  <Rbt.Parameter_File>
/root/miniconda3/envs/rdock/share/rxdock-2013.1.1_148c5bd1-0/data/scripts/dock.prm

>  <Rbt.Receptor>
def.prm

>  <SCORE>
-16.6717

>  <SCORE.INTER>
-18.0585

>  <SCORE.INTER.CONST>
1

>  <SCORE.INTER.POLAR>
-2.38541

>  <SCORE.INTER.REPUL>
0.00171965

>  <SCORE.INTER.ROT>
1

>  <SCORE.INTER.VDW>
-16.3568

>  <SCORE.INTER.norm>
-0.85993

>  <SCORE.INTRA>
2.4191

>  <SCORE.INTRA.DIHEDRAL>
3.0649

>  <SCORE.INTRA.DIHEDRAL.0>
1.23292

>  <SCORE.INTRA.POLAR>
0.210827

>  <SCORE.INTRA.POLAR.0>
-0.398136

>  <SCORE.INTRA.REPUL>
0

>  <SCORE.INTRA.REPUL.0>
0

>  <SCORE.INTRA.VDW>
0.169842

>  <SCORE.INTRA.VDW.0>
1.00302

>  <SCORE.INTRA.norm>
0.115195

>  <SCORE.RESTR>
0.0144072

>  <SCORE.RESTR.CAVITY>
0.0144072

>  <SCORE.RESTR.norm>
0.000686057

>  <SCORE.SYSTEM>
-1.04665

>  <SCORE.SYSTEM.CONST>
0

>  <SCORE.SYSTEM.DIHEDRAL>
0.0667835

>  <SCORE.SYSTEM.VDW>
-1.08004

>  <SCORE.SYSTEM.norm>
-0.0498403

>  <SCORE.heavy>
21

>  <SCORE.norm>
-0.793889

$$$$
5281697
  RxDock  02242113243D
librxdock.so/0.1.0
 25 27  0  0  0  0  0  0  0  0999 V2000
  -52.5260   -4.1321   14.8866 O   0  0  0  0  0  0
  -52.9027   -8.3629   17.2108 O   0  0  0  0  0  0
  -55.5317   -8.4814   16.4878 O   0  0  0  0  0  0
  -56.6585   -6.4546   14.9824 O   0  0  0  0  0  0
  -50.6734   -7.0102   17.0965 O   0  0  0  0  0  0
  -48.6555    0.6074   13.2936 O   0  0  0  0  0  0
  -52.6603   -6.2506   16.0671 C   0  0  0  0  0  0
  -53.2313   -5.2307   15.3079 C   0  0  0  0  0  0
  -51.1888   -4.0305   15.2393 C   0  0  0  0  0  0
  -51.2397   -6.1509   16.4353 C   0  0  0  0  0  0
  -53.4269   -7.3473   16.4677 C   0  0  0  0  0  0
  -50.5247   -2.8140   14.7299 C   0  0  0  0  0  0
  -50.5254   -4.9487   15.9600 C   0  0  0  0  0  0
  -54.5762   -5.3020   14.9438 C   0  0  0  0  0  0
  -54.7720   -7.4158   16.1025 C   0  0  0  0  0  0
  -55.3454   -6.3956   15.3422 C   0  0  0  0  0  0
  -49.1547   -2.6269   14.9289 C   0  0  0  0  0  0
  -51.2633   -1.8457   14.0456 C   0  0  0  0  0  0
  -48.5271   -1.4780   14.4470 C   0  0  0  0  0  0
  -50.6357   -0.6970   13.5635 C   0  0  0  0  0  0
  -49.2677   -0.5131   13.7643 C   0  0  0  0  0  0
  -51.9341   -8.3374   17.1930 H   0  0  0  0  0  0
  -55.0392   -9.2968   16.2898 H   0  0  0  0  0  0
  -57.1124   -7.0719   15.5822 H   0  0  0  0  0  0
  -49.3196    1.1717   12.8619 H   0  0  0  0  0  0
  1  8  1  0  0  0
  1  9  1  0  0  0
  2 11  1  0  0  0
  2 22  1  0  0  0
  3 15  1  0  0  0
  3 23  1  0  0  0
  4 16  1  0  0  0
  4 24  1  0  0  0
  5 10  2  0  0  0
  6 21  1  0  0  0
  6 25  1  0  0  0
  7  8  2  0  0  0
  7 10  1  0  0  0
  7 11  1  0  0  0
  8 14  1  0  0  0
  9 12  1  0  0  0
  9 13  2  0  0  0
 10 13  1  0  0  0
 11 15  2  0  0  0
 12 17  2  0  0  0
 12 18  1  0  0  0
 14 16  2  0  0  0
 15 16  1  0  0  0
 17 19  1  0  0  0
 18 20  2  0  0  0
 19 21  2  0  0  0
 20 21  1  0  0  0
M  END
>  <CHROM.0>
61.65795388,-179.00189259,-64.23705850

>  <CHROM.1>
-15.84427868,-47.81523950,-159.76892032,-179.02422619,-175.51143685,-52.11621371
-4.67903750,15.31896928,0.90388055,-0.24585108,-0.51609316

>  <Name>
5281697

>  <PUBCHEM_ATOM_DEF_STEREO_COUNT>
0

>  <PUBCHEM_ATOM_UDEF_STEREO_COUNT>
0

>  <PUBCHEM_BOND_DEF_STEREO_COUNT>
0

>  <PUBCHEM_BOND_UDEF_STEREO_COUNT>
0

>  <PUBCHEM_CACTVS_TAUTO_COUNT>
95

>  <PUBCHEM_COMPONENT_COUNT>
1

>  <PUBCHEM_COMPOUND_CID>
5281697

>  <PUBCHEM_CONFORMER_DIVERSEORDER>
1

>  <PUBCHEM_CONFORMER_ID>
005097A100000001

>  <PUBCHEM_CONFORMER_RMSD>
0.6

>  <PUBCHEM_COORDINATE_TYPE>
2
5
10

>  <PUBCHEM_EFFECTIVE_ROTOR_COUNT>
1

>  <PUBCHEM_FEATURE_SELFOVERLAP>
45.711

>  <PUBCHEM_HEAVY_ATOM_COUNT>
21

>  <PUBCHEM_ISOTOPIC_ATOM_COUNT>
0

>  <PUBCHEM_MMFF94_ENERGY>
63.223

>  <PUBCHEM_MMFF94_PARTIAL_CHARGES>
31
1 -0.16
10 0.47
11 0.08
12 0.03
13 -0.14
14 -0.15
15 0.08
16 0.08
17 -0.15
18 -0.15
19 -0.15
2 -0.53
20 -0.15
21 0.08
22 0.15
23 0.15
24 0.15
25 0.15
26 0.15
27 0.15
28 0.45
29 0.45
3 -0.53
30 0.45
31 0.45
4 -0.53
5 -0.57
6 -0.53
7 0.09
8 0.08
9 0.05

>  <PUBCHEM_PHARMACOPHORE_FEATURES>
9
1 1 acceptor
1 2 donor
1 3 donor
1 4 donor
1 5 acceptor
1 6 donor
6 1 7 8 9 10 13 rings
6 12 17 18 19 20 21 rings
6 7 8 11 14 15 16 rings

>  <PUBCHEM_SHAPE_FINGERPRINT>
10319926 262 18339625825081195930
10411042 1 17833271204996093459
10493431 412 18339369548524999705
10498660 4 18336542707697077949
10608611 8 18342173410280654128
10646746 165 18410573976930762244
11315181 36 17967813890389513380
11578080 2 13756702948478097673
11595378 159 17530951459133022432
12107183 9 17901657173352244522
12173636 292 18409726240512267175
12236239 1 17458623445659141570
12390115 104 18270976634926273329
12403259 415 18201996655522882608
12596602 18 16660369224522060160
12916748 109 18408890624269960579
13140716 1 17974859676664193147
13402501 40 18342737420969964016
13544592 145 18270128920288381310
14790565 3 17908994201191005865
15042514 8 18191873533892405547
15196674 1 18410856529976081566
15375358 24 18343866615200910982
18186145 218 18201727214817350440
200 152 16845855685150138058
20510252 161 18342459248711938305
20645477 56 18410293622761219728
20645477 70 17203057288073627646
21033648 29 18342165666017276744
21065198 57 18411699928693820962
21236236 1 18341332275253441647
21267235 1 18336835306807786307
21279426 13 18269558226339808350
21421861 104 17750502985271953402
22122407 14 15430327897065223269
221357 26 18131628967532776153
23175994 123 17275108344395955280
23227448 37 18341048618053264060
23402539 116 18412538846827169727
23402655 69 18131068208529289652
23557571 272 18342746251538334052
23559900 14 18271526391151403446
3004659 81 18335707088557568278
335352 9 18410856568245613789
350125 39 18409452522194264837
351380 180 18342174479584923540
3545911 37 18341896294727416792
4028521 119 18341892969874116496
4073 2 18114749334839713034
4214541 1 18411419514305071984
495365 180 17346303926350983370
5104073 3 18335985259569948114
633830 44 18200025115004324501
69090 78 18343580754709273606
77779 3 18411982455700122788
9709674 26 18342463659786276182

>  <PUBCHEM_SHAPE_MULTIPOLES>
396.95
11.7
2.35
0.66
9.05
0.35
0
-3.96
0.51
-2.32
-0.07
0.24
-0.01
0.68

>  <PUBCHEM_SHAPE_SELFOVERLAP>
891.042

>  <PUBCHEM_SHAPE_VOLUME>
208.7

>  <RI>
-6.90277e+08

>  <Rbt.Current_Directory>
/root/miniconda3/envs/rdock/share/rxdock-2013.1.1_148c5bd1-0/data/ligands/prepped_ligands/Scutellarein

>  <Rbt.Executable>
rbdock/0.1.0

>  <Rbt.Library>
librxdock.so/0.1.0

>  <Rbt.Parameter_File>
/root/miniconda3/envs/rdock/share/rxdock-2013.1.1_148c5bd1-0/data/scripts/dock.prm

>  <Rbt.Receptor>
def.prm

>  <SCORE>
-12.3964

>  <SCORE.INTER>
-13.6997

>  <SCORE.INTER.CONST>
1

>  <SCORE.INTER.POLAR>
-0.320277

>  <SCORE.INTER.REPUL>
0.106362

>  <SCORE.INTER.ROT>
1

>  <SCORE.INTER.VDW>
-19.5425

>  <SCORE.INTER.norm>
-0.652365

>  <SCORE.INTRA>
2.3559

>  <SCORE.INTRA.DIHEDRAL>
2.35703

>  <SCORE.INTRA.DIHEDRAL.0>
1.23292

>  <SCORE.INTRA.POLAR>
0.330333

>  <SCORE.INTRA.POLAR.0>
-0.398136

>  <SCORE.INTRA.REPUL>
0

>  <SCORE.INTRA.REPUL.0>
0

>  <SCORE.INTRA.VDW>
0.054254

>  <SCORE.INTRA.VDW.0>
1.00302

>  <SCORE.INTRA.norm>
0.112186

>  <SCORE.RESTR>
0

>  <SCORE.RESTR.CAVITY>
0

>  <SCORE.RESTR.norm>
0

>  <SCORE.SYSTEM>
-1.05265

>  <SCORE.SYSTEM.CONST>
0

>  <SCORE.SYSTEM.DIHEDRAL>
0.0582097

>  <SCORE.SYSTEM.VDW>
-1.08175

>  <SCORE.SYSTEM.norm>
-0.0501261

>  <SCORE.heavy>
21

>  <SCORE.norm>
-0.590305

$$$$
5281697
  RxDock  02242113243D
librxdock.so/0.1.0
 25 27  0  0  0  0  0  0  0  0999 V2000
  -50.4923   -3.1555   15.0751 O   0  0  0  0  0  0
  -45.7857   -2.9749   16.1969 O   0  0  0  0  0  0
  -45.5279   -0.7811   14.5940 O   0  0  0  0  0  0
  -47.7188    0.2241   13.2402 O   0  0  0  0  0  0
  -47.3956   -4.7913   17.1567 O   0  0  0  0  0  0
  -55.9475   -6.2216   15.9816 O   0  0  0  0  0  0
  -48.1380   -3.1107   15.6706 C   0  0  0  0  0  0
  -49.2405   -2.6012   14.9870 C   0  0  0  0  0  0
  -50.6638   -4.2760   15.8737 C   0  0  0  0  0  0
  -48.3179   -4.2937   16.5260 C   0  0  0  0  0  0
  -46.8860   -2.5044   15.5440 C   0  0  0  0  0  0
  -52.0491   -4.7867   15.9014 C   0  0  0  0  0  0
  -49.6831   -4.8542   16.5853 C   0  0  0  0  0  0
  -49.0970   -1.4790   14.1706 C   0  0  0  0  0  0
  -46.7453   -1.3823   14.7264 C   0  0  0  0  0  0
  -47.8483   -0.8706   14.0413 C   0  0  0  0  0  0
  -52.3835   -5.8637   16.7259 C   0  0  0  0  0  0
  -53.0313   -4.1943   15.1041 C   0  0  0  0  0  0
  -53.6923   -6.3457   16.7526 C   0  0  0  0  0  0
  -54.3401   -4.6761   15.1310 C   0  0  0  0  0  0
  -54.6705   -5.7519   15.9552 C   0  0  0  0  0  0
  -44.9746   -2.7190   15.7323 H   0  0  0  0  0  0
  -45.4852   -0.3648   13.7156 H   0  0  0  0  0  0
  -48.5943    0.4413   12.8754 H   0  0  0  0  0  0
  -56.3670   -6.0426   15.1225 H   0  0  0  0  0  0
  1  8  1  0  0  0
  1  9  1  0  0  0
  2 11  1  0  0  0
  2 22  1  0  0  0
  3 15  1  0  0  0
  3 23  1  0  0  0
  4 16  1  0  0  0
  4 24  1  0  0  0
  5 10  2  0  0  0
  6 21  1  0  0  0
  6 25  1  0  0  0
  7  8  2  0  0  0
  7 10  1  0  0  0
  7 11  1  0  0  0
  8 14  1  0  0  0
  9 12  1  0  0  0
  9 13  2  0  0  0
 10 13  1  0  0  0
 11 15  2  0  0  0
 12 17  2  0  0  0
 12 18  1  0  0  0
 14 16  2  0  0  0
 15 16  1  0  0  0
 17 19  1  0  0  0
 18 20  2  0  0  0
 19 21  2  0  0  0
 20 21  1  0  0  0
M  END
>  <CHROM.0>
58.99171583,57.66570338,-61.86875314

>  <CHROM.1>
155.29263884,151.16499354,1.73308046,-152.05955600,-176.26432844,-49.91304857
-3.50784274,15.49704914,2.66335429,0.21133311,2.48287453

>  <Name>
5281697

>  <PUBCHEM_ATOM_DEF_STEREO_COUNT>
0

>  <PUBCHEM_ATOM_UDEF_STEREO_COUNT>
0

>  <PUBCHEM_BOND_DEF_STEREO_COUNT>
0

>  <PUBCHEM_BOND_UDEF_STEREO_COUNT>
0

>  <PUBCHEM_CACTVS_TAUTO_COUNT>
95

>  <PUBCHEM_COMPONENT_COUNT>
1

>  <PUBCHEM_COMPOUND_CID>
5281697

>  <PUBCHEM_CONFORMER_DIVERSEORDER>
1

>  <PUBCHEM_CONFORMER_ID>
005097A100000001

>  <PUBCHEM_CONFORMER_RMSD>
0.6

>  <PUBCHEM_COORDINATE_TYPE>
2
5
10

>  <PUBCHEM_EFFECTIVE_ROTOR_COUNT>
1

>  <PUBCHEM_FEATURE_SELFOVERLAP>
45.711

>  <PUBCHEM_HEAVY_ATOM_COUNT>
21

>  <PUBCHEM_ISOTOPIC_ATOM_COUNT>
0

>  <PUBCHEM_MMFF94_ENERGY>
63.223

>  <PUBCHEM_MMFF94_PARTIAL_CHARGES>
31
1 -0.16
10 0.47
11 0.08
12 0.03
13 -0.14
14 -0.15
15 0.08
16 0.08
17 -0.15
18 -0.15
19 -0.15
2 -0.53
20 -0.15
21 0.08
22 0.15
23 0.15
24 0.15
25 0.15
26 0.15
27 0.15
28 0.45
29 0.45
3 -0.53
30 0.45
31 0.45
4 -0.53
5 -0.57
6 -0.53
7 0.09
8 0.08
9 0.05

>  <PUBCHEM_PHARMACOPHORE_FEATURES>
9
1 1 acceptor
1 2 donor
1 3 donor
1 4 donor
1 5 acceptor
1 6 donor
6 1 7 8 9 10 13 rings
6 12 17 18 19 20 21 rings
6 7 8 11 14 15 16 rings

>  <PUBCHEM_SHAPE_FINGERPRINT>
10319926 262 18339625825081195930
10411042 1 17833271204996093459
10493431 412 18339369548524999705
10498660 4 18336542707697077949
10608611 8 18342173410280654128
10646746 165 18410573976930762244
11315181 36 17967813890389513380
11578080 2 13756702948478097673
11595378 159 17530951459133022432
12107183 9 17901657173352244522
12173636 292 18409726240512267175
12236239 1 17458623445659141570
12390115 104 18270976634926273329
12403259 415 18201996655522882608
12596602 18 16660369224522060160
12916748 109 18408890624269960579
13140716 1 17974859676664193147
13402501 40 18342737420969964016
13544592 145 18270128920288381310
14790565 3 17908994201191005865
15042514 8 18191873533892405547
15196674 1 18410856529976081566
15375358 24 18343866615200910982
18186145 218 18201727214817350440
200 152 16845855685150138058
20510252 161 18342459248711938305
20645477 56 18410293622761219728
20645477 70 17203057288073627646
21033648 29 18342165666017276744
21065198 57 18411699928693820962
21236236 1 18341332275253441647
21267235 1 18336835306807786307
21279426 13 18269558226339808350
21421861 104 17750502985271953402
22122407 14 15430327897065223269
221357 26 18131628967532776153
23175994 123 17275108344395955280
23227448 37 18341048618053264060
23402539 116 18412538846827169727
23402655 69 18131068208529289652
23557571 272 18342746251538334052
23559900 14 18271526391151403446
3004659 81 18335707088557568278
335352 9 18410856568245613789
350125 39 18409452522194264837
351380 180 18342174479584923540
3545911 37 18341896294727416792
4028521 119 18341892969874116496
4073 2 18114749334839713034
4214541 1 18411419514305071984
495365 180 17346303926350983370
5104073 3 18335985259569948114
633830 44 18200025115004324501
69090 78 18343580754709273606
77779 3 18411982455700122788
9709674 26 18342463659786276182

>  <PUBCHEM_SHAPE_MULTIPOLES>
396.95
11.7
2.35
0.66
9.05
0.35
0
-3.96
0.51
-2.32
-0.07
0.24
-0.01
0.68

>  <PUBCHEM_SHAPE_SELFOVERLAP>
891.042

>  <PUBCHEM_SHAPE_VOLUME>
208.7

>  <RI>
-6.90277e+08

>  <Rbt.Current_Directory>
/root/miniconda3/envs/rdock/share/rxdock-2013.1.1_148c5bd1-0/data/ligands/prepped_ligands/Scutellarein

>  <Rbt.Executable>
rbdock/0.1.0

>  <Rbt.Library>
librxdock.so/0.1.0

>  <Rbt.Parameter_File>
/root/miniconda3/envs/rdock/share/rxdock-2013.1.1_148c5bd1-0/data/scripts/dock.prm

>  <Rbt.Receptor>
def.prm

>  <SCORE>
-15.0114

>  <SCORE.INTER>
-16.3914

>  <SCORE.INTER.CONST>
1

>  <SCORE.INTER.POLAR>
-1.82255

>  <SCORE.INTER.REPUL>
0.0209309

>  <SCORE.INTER.ROT>
1

>  <SCORE.INTER.VDW>
-16.6993

>  <SCORE.INTER.norm>
-0.780541

>  <SCORE.INTRA>
2.2818

>  <SCORE.INTRA.DIHEDRAL>
1.79579

>  <SCORE.INTRA.DIHEDRAL.0>
1.23292

>  <SCORE.INTRA.POLAR>
0.325983

>  <SCORE.INTRA.POLAR.0>
-0.398136

>  <SCORE.INTRA.REPUL>
0

>  <SCORE.INTRA.REPUL.0>
0

>  <SCORE.INTRA.VDW>
0.275565

>  <SCORE.INTRA.VDW.0>
1.00302

>  <SCORE.INTRA.norm>
0.108657

>  <SCORE.RESTR>
0

>  <SCORE.RESTR.CAVITY>
0

>  <SCORE.RESTR.norm>
0

>  <SCORE.SYSTEM>
-0.901806

>  <SCORE.SYSTEM.CONST>
0

>  <SCORE.SYSTEM.DIHEDRAL>
0.0404408

>  <SCORE.SYSTEM.VDW>
-0.922027

>  <SCORE.SYSTEM.norm>
-0.0429432

>  <SCORE.heavy>
21

>  <SCORE.norm>
-0.714827

$$$$
5281697
  RxDock  02242113253D
librxdock.so/0.1.0
 25 27  0  0  0  0  0  0  0  0999 V2000
  -50.1513   -3.4172   15.6691 O   0  0  0  0  0  0
  -47.7563    0.1488   13.4352 O   0  0  0  0  0  0
  -45.4652   -0.6670   14.6736 O   0  0  0  0  0  0
  -45.5024   -2.8312   16.3937 O   0  0  0  0  0  0
  -50.3123   -0.2594   13.0998 O   0  0  0  0  0  0
  -55.7621   -6.2270   16.4521 O   0  0  0  0  0  0
  -48.9982   -1.6123   14.5236 C   0  0  0  0  0  0
  -49.0134   -2.7031   15.3910 C   0  0  0  0  0  0
  -51.3381   -3.0302   15.0654 C   0  0  0  0  0  0
  -50.2534   -1.2044   13.8742 C   0  0  0  0  0  0
  -47.8091   -0.9223   14.2768 C   0  0  0  0  0  0
  -52.4976   -3.8691   15.4290 C   0  0  0  0  0  0
  -51.4501   -2.0031   14.2080 C   0  0  0  0  0  0
  -47.8361   -3.1115   16.0183 C   0  0  0  0  0  0
  -46.6330   -1.3327   14.9059 C   0  0  0  0  0  0
  -46.6464   -2.4249   15.7747 C   0  0  0  0  0  0
  -52.7884   -4.1201   16.7722 C   0  0  0  0  0  0
  -53.3095   -4.4144   14.4315 C   0  0  0  0  0  0
  -53.8842   -4.9120   17.1157 C   0  0  0  0  0  0
  -54.4054   -5.2060   14.7750 C   0  0  0  0  0  0
  -54.6926   -5.4549   16.1171 C   0  0  0  0  0  0
  -47.0275    0.0541   12.8034 H   0  0  0  0  0  0
  -45.3824   -0.5177   13.7158 H   0  0  0  0  0  0
  -45.7411   -3.2184   17.2538 H   0  0  0  0  0  0
  -56.1965   -6.5341   15.6379 H   0  0  0  0  0  0
  1  8  1  0  0  0
  1  9  1  0  0  0
  2 11  1  0  0  0
  2 22  1  0  0  0
  3 15  1  0  0  0
  3 23  1  0  0  0
  4 16  1  0  0  0
  4 24  1  0  0  0
  5 10  2  0  0  0
  6 21  1  0  0  0
  6 25  1  0  0  0
  7  8  2  0  0  0
  7 10  1  0  0  0
  7 11  1  0  0  0
  8 14  1  0  0  0
  9 12  1  0  0  0
  9 13  2  0  0  0
 10 13  1  0  0  0
 11 15  2  0  0  0
 12 17  2  0  0  0
 12 18  1  0  0  0
 14 16  2  0  0  0
 15 16  1  0  0  0
 17 19  1  0  0  0
 18 20  2  0  0  0
 19 21  2  0  0  0
 20 21  1  0  0  0
M  END
>  <CHROM.0>
176.98879664,-58.51925002,58.78305581

>  <CHROM.1>
-130.89232135,-45.52610556,-30.46777689,-178.76041909,51.24545796,-50.23081352
-2.80411032,15.14851179,-2.70275778,-0.23298088,-0.74224161

>  <Name>
5281697

>  <PUBCHEM_ATOM_DEF_STEREO_COUNT>
0

>  <PUBCHEM_ATOM_UDEF_STEREO_COUNT>
0

>  <PUBCHEM_BOND_DEF_STEREO_COUNT>
0

>  <PUBCHEM_BOND_UDEF_STEREO_COUNT>
0

>  <PUBCHEM_CACTVS_TAUTO_COUNT>
95

>  <PUBCHEM_COMPONENT_COUNT>
1

>  <PUBCHEM_COMPOUND_CID>
5281697

>  <PUBCHEM_CONFORMER_DIVERSEORDER>
1

>  <PUBCHEM_CONFORMER_ID>
005097A100000001

>  <PUBCHEM_CONFORMER_RMSD>
0.6

>  <PUBCHEM_COORDINATE_TYPE>
2
5
10

>  <PUBCHEM_EFFECTIVE_ROTOR_COUNT>
1

>  <PUBCHEM_FEATURE_SELFOVERLAP>
45.711

>  <PUBCHEM_HEAVY_ATOM_COUNT>
21

>  <PUBCHEM_ISOTOPIC_ATOM_COUNT>
0

>  <PUBCHEM_MMFF94_ENERGY>
63.223

>  <PUBCHEM_MMFF94_PARTIAL_CHARGES>
31
1 -0.16
10 0.47
11 0.08
12 0.03
13 -0.14
14 -0.15
15 0.08
16 0.08
17 -0.15
18 -0.15
19 -0.15
2 -0.53
20 -0.15
21 0.08
22 0.15
23 0.15
24 0.15
25 0.15
26 0.15
27 0.15
28 0.45
29 0.45
3 -0.53
30 0.45
31 0.45
4 -0.53
5 -0.57
6 -0.53
7 0.09
8 0.08
9 0.05

>  <PUBCHEM_PHARMACOPHORE_FEATURES>
9
1 1 acceptor
1 2 donor
1 3 donor
1 4 donor
1 5 acceptor
1 6 donor
6 1 7 8 9 10 13 rings
6 12 17 18 19 20 21 rings
6 7 8 11 14 15 16 rings

>  <PUBCHEM_SHAPE_FINGERPRINT>
10319926 262 18339625825081195930
10411042 1 17833271204996093459
10493431 412 18339369548524999705
10498660 4 18336542707697077949
10608611 8 18342173410280654128
10646746 165 18410573976930762244
11315181 36 17967813890389513380
11578080 2 13756702948478097673
11595378 159 17530951459133022432
12107183 9 17901657173352244522
12173636 292 18409726240512267175
12236239 1 17458623445659141570
12390115 104 18270976634926273329
12403259 415 18201996655522882608
12596602 18 16660369224522060160
12916748 109 18408890624269960579
13140716 1 17974859676664193147
13402501 40 18342737420969964016
13544592 145 18270128920288381310
14790565 3 17908994201191005865
15042514 8 18191873533892405547
15196674 1 18410856529976081566
15375358 24 18343866615200910982
18186145 218 18201727214817350440
200 152 16845855685150138058
20510252 161 18342459248711938305
20645477 56 18410293622761219728
20645477 70 17203057288073627646
21033648 29 18342165666017276744
21065198 57 18411699928693820962
21236236 1 18341332275253441647
21267235 1 18336835306807786307
21279426 13 18269558226339808350
21421861 104 17750502985271953402
22122407 14 15430327897065223269
221357 26 18131628967532776153
23175994 123 17275108344395955280
23227448 37 18341048618053264060
23402539 116 18412538846827169727
23402655 69 18131068208529289652
23557571 272 18342746251538334052
23559900 14 18271526391151403446
3004659 81 18335707088557568278
335352 9 18410856568245613789
350125 39 18409452522194264837
351380 180 18342174479584923540
3545911 37 18341896294727416792
4028521 119 18341892969874116496
4073 2 18114749334839713034
4214541 1 18411419514305071984
495365 180 17346303926350983370
5104073 3 18335985259569948114
633830 44 18200025115004324501
69090 78 18343580754709273606
77779 3 18411982455700122788
9709674 26 18342463659786276182

>  <PUBCHEM_SHAPE_MULTIPOLES>
396.95
11.7
2.35
0.66
9.05
0.35
0
-3.96
0.51
-2.32
-0.07
0.24
-0.01
0.68

>  <PUBCHEM_SHAPE_SELFOVERLAP>
891.042

>  <PUBCHEM_SHAPE_VOLUME>
208.7

>  <RI>
-6.90277e+08

>  <Rbt.Current_Directory>
/root/miniconda3/envs/rdock/share/rxdock-2013.1.1_148c5bd1-0/data/ligands/prepped_ligands/Scutellarein

>  <Rbt.Executable>
rbdock/0.1.0

>  <Rbt.Library>
librxdock.so/0.1.0

>  <Rbt.Parameter_File>
/root/miniconda3/envs/rdock/share/rxdock-2013.1.1_148c5bd1-0/data/scripts/dock.prm

>  <Rbt.Receptor>
def.prm

>  <SCORE>
-17.5408

>  <SCORE.INTER>
-21.2036

>  <SCORE.INTER.CONST>
1

>  <SCORE.INTER.POLAR>
-3.09419

>  <SCORE.INTER.REPUL>
0.0573546

>  <SCORE.INTER.ROT>
1

>  <SCORE.INTER.VDW>
-17.3701

>  <SCORE.INTER.norm>
-1.00969

>  <SCORE.INTRA>
4.66486

>  <SCORE.INTRA.DIHEDRAL>
8.0709

>  <SCORE.INTRA.DIHEDRAL.0>
1.23292

>  <SCORE.INTRA.POLAR>
0.398136

>  <SCORE.INTRA.POLAR.0>
-0.398136

>  <SCORE.INTRA.REPUL>
0

>  <SCORE.INTRA.REPUL.0>
0

>  <SCORE.INTRA.VDW>
-0.724253

>  <SCORE.INTRA.VDW.0>
1.00302

>  <SCORE.INTRA.norm>
0.222136

>  <SCORE.RESTR>
0

>  <SCORE.RESTR.CAVITY>
0

>  <SCORE.RESTR.norm>
0

>  <SCORE.SYSTEM>
-1.00212

>  <SCORE.SYSTEM.CONST>
0

>  <SCORE.SYSTEM.DIHEDRAL>
0.0402022

>  <SCORE.SYSTEM.VDW>
-1.02222

>  <SCORE.SYSTEM.norm>
-0.04772

>  <SCORE.heavy>
21

>  <SCORE.norm>
-0.835278

$$$$
5281697
  RxDock  02242113253D
librxdock.so/0.1.0
 25 27  0  0  0  0  0  0  0  0999 V2000
  -52.5633   -4.7583   15.0110 O   0  0  0  0  0  0
  -52.5408   -8.5018   18.0817 O   0  0  0  0  0  0
  -54.6059   -9.6105   16.6836 O   0  0  0  0  0  0
  -55.6484   -8.3183   14.4730 O   0  0  0  0  0  0
  -50.8823   -6.4971   18.2897 O   0  0  0  0  0  0
  -49.8634    0.7566   13.5028 O   0  0  0  0  0  0
  -52.5093   -6.6119   16.5797 C   0  0  0  0  0  0
  -53.0369   -5.9632   15.4646 C   0  0  0  0  0  0
  -51.5191   -4.1580   15.6981 C   0  0  0  0  0  0
  -51.3955   -5.9827   17.3057 C   0  0  0  0  0  0
  -53.0311   -7.8388   16.9961 C   0  0  0  0  0  0
  -51.0842   -2.8697   15.1224 C   0  0  0  0  0  0
  -50.9237   -4.6858   16.7795 C   0  0  0  0  0  0
  -54.0924   -6.5396   14.7574 C   0  0  0  0  0  0
  -54.0871   -8.4128   16.2870 C   0  0  0  0  0  0
  -54.6166   -7.7648   15.1701 C   0  0  0  0  0  0
  -51.1855   -2.6459   13.7471 C   0  0  0  0  0  0
  -50.5708   -1.8687   15.9505 C   0  0  0  0  0  0
  -50.7753   -1.4285   13.2033 C   0  0  0  0  0  0
  -50.1609   -0.6513   15.4068 C   0  0  0  0  0  0
  -50.2630   -0.4313   14.0331 C   0  0  0  0  0  0
  -51.6546   -8.1820   18.3085 H   0  0  0  0  0  0
  -54.6531  -10.1964   15.9082 H   0  0  0  0  0  0
  -55.7211   -9.2548   14.7265 H   0  0  0  0  0  0
  -50.0242    1.4620   14.1529 H   0  0  0  0  0  0
  1  8  1  0  0  0
  1  9  1  0  0  0
  2 11  1  0  0  0
  2 22  1  0  0  0
  3 15  1  0  0  0
  3 23  1  0  0  0
  4 16  1  0  0  0
  4 24  1  0  0  0
  5 10  2  0  0  0
  6 21  1  0  0  0
  6 25  1  0  0  0
  7  8  2  0  0  0
  7 10  1  0  0  0
  7 11  1  0  0  0
  8 14  1  0  0  0
  9 12  1  0  0  0
  9 13  2  0  0  0
 10 13  1  0  0  0
 11 15  2  0  0  0
 12 17  2  0  0  0
 12 18  1  0  0  0
 14 16  2  0  0  0
 15 16  1  0  0  0
 17 19  1  0  0  0
 18 20  2  0  0  0
 19 21  2  0  0  0
 20 21  1  0  0  0
M  END
>  <CHROM.0>
-62.77356576,-177.36369943,-59.04496101

>  <CHROM.1>
-18.93137910,-130.31511271,164.24962760,147.82124703,-31.02696949,-52.19714708
-5.06628212,15.66282952,0.95780338,-0.76336311,-0.72299956

>  <Name>
5281697

>  <PUBCHEM_ATOM_DEF_STEREO_COUNT>
0

>  <PUBCHEM_ATOM_UDEF_STEREO_COUNT>
0

>  <PUBCHEM_BOND_DEF_STEREO_COUNT>
0

>  <PUBCHEM_BOND_UDEF_STEREO_COUNT>
0

>  <PUBCHEM_CACTVS_TAUTO_COUNT>
95

>  <PUBCHEM_COMPONENT_COUNT>
1

>  <PUBCHEM_COMPOUND_CID>
5281697

>  <PUBCHEM_CONFORMER_DIVERSEORDER>
1

>  <PUBCHEM_CONFORMER_ID>
005097A100000001

>  <PUBCHEM_CONFORMER_RMSD>
0.6

>  <PUBCHEM_COORDINATE_TYPE>
2
5
10

>  <PUBCHEM_EFFECTIVE_ROTOR_COUNT>
1

>  <PUBCHEM_FEATURE_SELFOVERLAP>
45.711

>  <PUBCHEM_HEAVY_ATOM_COUNT>
21

>  <PUBCHEM_ISOTOPIC_ATOM_COUNT>
0

>  <PUBCHEM_MMFF94_ENERGY>
63.223

>  <PUBCHEM_MMFF94_PARTIAL_CHARGES>
31
1 -0.16
10 0.47
11 0.08
12 0.03
13 -0.14
14 -0.15
15 0.08
16 0.08
17 -0.15
18 -0.15
19 -0.15
2 -0.53
20 -0.15
21 0.08
22 0.15
23 0.15
24 0.15
25 0.15
26 0.15
27 0.15
28 0.45
29 0.45
3 -0.53
30 0.45
31 0.45
4 -0.53
5 -0.57
6 -0.53
7 0.09
8 0.08
9 0.05

>  <PUBCHEM_PHARMACOPHORE_FEATURES>
9
1 1 acceptor
1 2 donor
1 3 donor
1 4 donor
1 5 acceptor
1 6 donor
6 1 7 8 9 10 13 rings
6 12 17 18 19 20 21 rings
6 7 8 11 14 15 16 rings

>  <PUBCHEM_SHAPE_FINGERPRINT>
10319926 262 18339625825081195930
10411042 1 17833271204996093459
10493431 412 18339369548524999705
10498660 4 18336542707697077949
10608611 8 18342173410280654128
10646746 165 18410573976930762244
11315181 36 17967813890389513380
11578080 2 13756702948478097673
11595378 159 17530951459133022432
12107183 9 17901657173352244522
12173636 292 18409726240512267175
12236239 1 17458623445659141570
12390115 104 18270976634926273329
12403259 415 18201996655522882608
12596602 18 16660369224522060160
12916748 109 18408890624269960579
13140716 1 17974859676664193147
13402501 40 18342737420969964016
13544592 145 18270128920288381310
14790565 3 17908994201191005865
15042514 8 18191873533892405547
15196674 1 18410856529976081566
15375358 24 18343866615200910982
18186145 218 18201727214817350440
200 152 16845855685150138058
20510252 161 18342459248711938305
20645477 56 18410293622761219728
20645477 70 17203057288073627646
21033648 29 18342165666017276744
21065198 57 18411699928693820962
21236236 1 18341332275253441647
21267235 1 18336835306807786307
21279426 13 18269558226339808350
21421861 104 17750502985271953402
22122407 14 15430327897065223269
221357 26 18131628967532776153
23175994 123 17275108344395955280
23227448 37 18341048618053264060
23402539 116 18412538846827169727
23402655 69 18131068208529289652
23557571 272 18342746251538334052
23559900 14 18271526391151403446
3004659 81 18335707088557568278
335352 9 18410856568245613789
350125 39 18409452522194264837
351380 180 18342174479584923540
3545911 37 18341896294727416792
4028521 119 18341892969874116496
4073 2 18114749334839713034
4214541 1 18411419514305071984
495365 180 17346303926350983370
5104073 3 18335985259569948114
633830 44 18200025115004324501
69090 78 18343580754709273606
77779 3 18411982455700122788
9709674 26 18342463659786276182

>  <PUBCHEM_SHAPE_MULTIPOLES>
396.95
11.7
2.35
0.66
9.05
0.35
0
-3.96
0.51
-2.32
-0.07
0.24
-0.01
0.68

>  <PUBCHEM_SHAPE_SELFOVERLAP>
891.042

>  <PUBCHEM_SHAPE_VOLUME>
208.7

>  <RI>
-6.90277e+08

>  <Rbt.Current_Directory>
/root/miniconda3/envs/rdock/share/rxdock-2013.1.1_148c5bd1-0/data/ligands/prepped_ligands/Scutellarein

>  <Rbt.Executable>
rbdock/0.1.0

>  <Rbt.Library>
librxdock.so/0.1.0

>  <Rbt.Parameter_File>
/root/miniconda3/envs/rdock/share/rxdock-2013.1.1_148c5bd1-0/data/scripts/dock.prm

>  <Rbt.Receptor>
def.prm

>  <SCORE>
-11.4073

>  <SCORE.INTER>
-14.1675

>  <SCORE.INTER.CONST>
1

>  <SCORE.INTER.POLAR>
-1.07485

>  <SCORE.INTER.REPUL>
0

>  <SCORE.INTER.ROT>
1

>  <SCORE.INTER.VDW>
-16.9131

>  <SCORE.INTER.norm>
-0.674645

>  <SCORE.INTRA>
3.81848

>  <SCORE.INTRA.DIHEDRAL>
5.09078

>  <SCORE.INTRA.DIHEDRAL.0>
1.23292

>  <SCORE.INTRA.POLAR>
0.398136

>  <SCORE.INTRA.POLAR.0>
-0.398136

>  <SCORE.INTRA.REPUL>
0

>  <SCORE.INTRA.REPUL.0>
0

>  <SCORE.INTRA.VDW>
-0.0805725

>  <SCORE.INTRA.VDW.0>
1.00302

>  <SCORE.INTRA.norm>
0.181832

>  <SCORE.RESTR>
0

>  <SCORE.RESTR.CAVITY>
0

>  <SCORE.RESTR.norm>
0

>  <SCORE.SYSTEM>
-1.05828

>  <SCORE.SYSTEM.CONST>
0

>  <SCORE.SYSTEM.DIHEDRAL>
0.0569047

>  <SCORE.SYSTEM.POLAR>
-0.00317834

>  <SCORE.SYSTEM.VDW>
-1.07592

>  <SCORE.SYSTEM.norm>
-0.0503942

>  <SCORE.heavy>
21

>  <SCORE.norm>
-0.543206

$$$$
5281697
  RxDock  02242113253D
librxdock.so/0.1.0
 25 27  0  0  0  0  0  0  0  0999 V2000
  -49.9737   -3.5359   15.6595 O   0  0  0  0  0  0
  -47.6894    0.1410   13.4902 O   0  0  0  0  0  0
  -45.3649   -0.6527   14.6796 O   0  0  0  0  0  0
  -45.3308   -2.8605   16.3435 O   0  0  0  0  0  0
  -50.2394   -0.3179   13.1749 O   0  0  0  0  0  0
  -55.5081   -6.4958   16.4340 O   0  0  0  0  0  0
  -48.8768   -1.6758   14.5473 C   0  0  0  0  0  0
  -48.8562   -2.7886   15.3864 C   0  0  0  0  0  0
  -51.1766   -3.1612   15.0802 C   0  0  0  0  0  0
  -50.1491   -1.2808   13.9238 C   0  0  0  0  0  0
  -47.7071   -0.9522   14.3043 C   0  0  0  0  0  0
  -52.3119   -4.0359   15.4358 C   0  0  0  0  0  0
  -51.3229   -2.1155   14.2511 C   0  0  0  0  0  0
  -47.6620   -3.1853   15.9888 C   0  0  0  0  0  0
  -46.5141   -1.3512   14.9086 C   0  0  0  0  0  0
  -46.4915   -2.4652   15.7489 C   0  0  0  0  0  0
  -53.2478   -3.6195   16.3857 C   0  0  0  0  0  0
  -52.4556   -5.2830   14.8230 C   0  0  0  0  0  0
  -54.3208   -4.4455   16.7211 C   0  0  0  0  0  0
  -53.5286   -6.1089   15.1582 C   0  0  0  0  0  0
  -54.4611   -5.6902   16.1073 C   0  0  0  0  0  0
  -46.9897    0.0625   12.8243 H   0  0  0  0  0  0
  -45.3123   -0.4514   13.7291 H   0  0  0  0  0  0
  -44.6233   -2.2523   16.0673 H   0  0  0  0  0  0
  -55.6633   -7.1218   15.7059 H   0  0  0  0  0  0
  1  8  1  0  0  0
  1  9  1  0  0  0
  2 11  1  0  0  0
  2 22  1  0  0  0
  3 15  1  0  0  0
  3 23  1  0  0  0
  4 16  1  0  0  0
  4 24  1  0  0  0
  5 10  2  0  0  0
  6 21  1  0  0  0
  6 25  1  0  0  0
  7  8  2  0  0  0
  7 10  1  0  0  0
  7 11  1  0  0  0
  8 14  1  0  0  0
  9 12  1  0  0  0
  9 13  2  0  0  0
 10 13  1  0  0  0
 11 15  2  0  0  0
 12 17  2  0  0  0
 12 18  1  0  0  0
 14 16  2  0  0  0
 15 16  1  0  0  0
 17 19  1  0  0  0
 18 20  2  0  0  0
 19 21  2  0  0  0
 20 21  1  0  0  0
M  END
>  <CHROM.0>
-178.98234683,-64.09439792,178.37692363

>  <CHROM.1>
-128.56488356,-43.67184145,179.92557518,157.64411420,102.69385630,-50.06970984
-2.90932720,15.15183750,-2.65390808,-0.18783278,-0.61475874

>  <Name>
5281697

>  <PUBCHEM_ATOM_DEF_STEREO_COUNT>
0

>  <PUBCHEM_ATOM_UDEF_STEREO_COUNT>
0

>  <PUBCHEM_BOND_DEF_STEREO_COUNT>
0

>  <PUBCHEM_BOND_UDEF_STEREO_COUNT>
0

>  <PUBCHEM_CACTVS_TAUTO_COUNT>
95

>  <PUBCHEM_COMPONENT_COUNT>
1

>  <PUBCHEM_COMPOUND_CID>
5281697

>  <PUBCHEM_CONFORMER_DIVERSEORDER>
1

>  <PUBCHEM_CONFORMER_ID>
005097A100000001

>  <PUBCHEM_CONFORMER_RMSD>
0.6

>  <PUBCHEM_COORDINATE_TYPE>
2
5
10

>  <PUBCHEM_EFFECTIVE_ROTOR_COUNT>
1

>  <PUBCHEM_FEATURE_SELFOVERLAP>
45.711

>  <PUBCHEM_HEAVY_ATOM_COUNT>
21

>  <PUBCHEM_ISOTOPIC_ATOM_COUNT>
0

>  <PUBCHEM_MMFF94_ENERGY>
63.223

>  <PUBCHEM_MMFF94_PARTIAL_CHARGES>
31
1 -0.16
10 0.47
11 0.08
12 0.03
13 -0.14
14 -0.15
15 0.08
16 0.08
17 -0.15
18 -0.15
19 -0.15
2 -0.53
20 -0.15
21 0.08
22 0.15
23 0.15
24 0.15
25 0.15
26 0.15
27 0.15
28 0.45
29 0.45
3 -0.53
30 0.45
31 0.45
4 -0.53
5 -0.57
6 -0.53
7 0.09
8 0.08
9 0.05

>  <PUBCHEM_PHARMACOPHORE_FEATURES>
9
1 1 acceptor
1 2 donor
1 3 donor
1 4 donor
1 5 acceptor
1 6 donor
6 1 7 8 9 10 13 rings
6 12 17 18 19 20 21 rings
6 7 8 11 14 15 16 rings

>  <PUBCHEM_SHAPE_FINGERPRINT>
10319926 262 18339625825081195930
10411042 1 17833271204996093459
10493431 412 18339369548524999705
10498660 4 18336542707697077949
10608611 8 18342173410280654128
10646746 165 18410573976930762244
11315181 36 17967813890389513380
11578080 2 13756702948478097673
11595378 159 17530951459133022432
12107183 9 17901657173352244522
12173636 292 18409726240512267175
12236239 1 17458623445659141570
12390115 104 18270976634926273329
12403259 415 18201996655522882608
12596602 18 16660369224522060160
12916748 109 18408890624269960579
13140716 1 17974859676664193147
13402501 40 18342737420969964016
13544592 145 18270128920288381310
14790565 3 17908994201191005865
15042514 8 18191873533892405547
15196674 1 18410856529976081566
15375358 24 18343866615200910982
18186145 218 18201727214817350440
200 152 16845855685150138058
20510252 161 18342459248711938305
20645477 56 18410293622761219728
20645477 70 17203057288073627646
21033648 29 18342165666017276744
21065198 57 18411699928693820962
21236236 1 18341332275253441647
21267235 1 18336835306807786307
21279426 13 18269558226339808350
21421861 104 17750502985271953402
22122407 14 15430327897065223269
221357 26 18131628967532776153
23175994 123 17275108344395955280
23227448 37 18341048618053264060
23402539 116 18412538846827169727
23402655 69 18131068208529289652
23557571 272 18342746251538334052
23559900 14 18271526391151403446
3004659 81 18335707088557568278
335352 9 18410856568245613789
350125 39 18409452522194264837
351380 180 18342174479584923540
3545911 37 18341896294727416792
4028521 119 18341892969874116496
4073 2 18114749334839713034
4214541 1 18411419514305071984
495365 180 17346303926350983370
5104073 3 18335985259569948114
633830 44 18200025115004324501
69090 78 18343580754709273606
77779 3 18411982455700122788
9709674 26 18342463659786276182

>  <PUBCHEM_SHAPE_MULTIPOLES>
396.95
11.7
2.35
0.66
9.05
0.35
0
-3.96
0.51
-2.32
-0.07
0.24
-0.01
0.68

>  <PUBCHEM_SHAPE_SELFOVERLAP>
891.042

>  <PUBCHEM_SHAPE_VOLUME>
208.7

>  <RI>
-6.90277e+08

>  <Rbt.Current_Directory>
/root/miniconda3/envs/rdock/share/rxdock-2013.1.1_148c5bd1-0/data/ligands/prepped_ligands/Scutellarein

>  <Rbt.Executable>
rbdock/0.1.0

>  <Rbt.Library>
librxdock.so/0.1.0

>  <Rbt.Parameter_File>
/root/miniconda3/envs/rdock/share/rxdock-2013.1.1_148c5bd1-0/data/scripts/dock.prm

>  <Rbt.Receptor>
def.prm

>  <SCORE>
-17.0362

>  <SCORE.INTER>
-20.2029

>  <SCORE.INTER.CONST>
1

>  <SCORE.INTER.POLAR>
-2.8569

>  <SCORE.INTER.REPUL>
0

>  <SCORE.INTER.ROT>
1

>  <SCORE.INTER.VDW>
-16.8895

>  <SCORE.INTER.norm>
-0.962045

>  <SCORE.INTRA>
4.24309

>  <SCORE.INTRA.DIHEDRAL>
9.27079

>  <SCORE.INTRA.DIHEDRAL.0>
1.23292

>  <SCORE.INTRA.POLAR>
0.267207

>  <SCORE.INTRA.POLAR.0>
-0.398136

>  <SCORE.INTRA.REPUL>
0

>  <SCORE.INTRA.REPUL.0>
0

>  <SCORE.INTRA.VDW>
-1.30081

>  <SCORE.INTRA.VDW.0>
1.00302

>  <SCORE.INTRA.norm>
0.202052

>  <SCORE.RESTR>
0

>  <SCORE.RESTR.CAVITY>
0

>  <SCORE.RESTR.norm>
0

>  <SCORE.SYSTEM>
-1.07631

>  <SCORE.SYSTEM.CONST>
0

>  <SCORE.SYSTEM.DIHEDRAL>
0.0922328

>  <SCORE.SYSTEM.VDW>
-1.12242

>  <SCORE.SYSTEM.norm>
-0.0512527

>  <SCORE.heavy>
21

>  <SCORE.norm>
-0.811246

$$$$
5281697
  RxDock  02242113253D
librxdock.so/0.1.0
 25 27  0  0  0  0  0  0  0  0999 V2000
  -52.3737   -4.0870   14.7908 O   0  0  0  0  0  0
  -52.7292   -8.1725   17.3648 O   0  0  0  0  0  0
  -55.2849   -8.4760   16.4567 O   0  0  0  0  0  0
  -56.3856   -6.6132   14.7356 O   0  0  0  0  0  0
  -50.5648   -6.7143   17.3254 O   0  0  0  0  0  0
  -48.6207    0.7371   13.1709 O   0  0  0  0  0  0
  -52.4989   -6.1288   16.1003 C   0  0  0  0  0  0
  -53.0566   -5.1918   15.2323 C   0  0  0  0  0  0
  -51.0745   -3.8924   15.2349 C   0  0  0  0  0  0
  -51.1179   -5.9307   16.5663 C   0  0  0  0  0  0
  -53.2414   -7.2362   16.5167 C   0  0  0  0  0  0
  -50.4313   -2.6781   14.6944 C   0  0  0  0  0  0
  -50.4267   -4.7257   16.0645 C   0  0  0  0  0  0
  -54.3640   -5.3574   14.7742 C   0  0  0  0  0  0
  -54.5490   -7.3991   16.0572 C   0  0  0  0  0  0
  -55.1091   -6.4618   15.1879 C   0  0  0  0  0  0
  -49.0642   -2.4636   14.8865 C   0  0  0  0  0  0
  -51.1866   -1.7393   13.9877 C   0  0  0  0  0  0
  -48.4564   -1.3168   14.3752 C   0  0  0  0  0  0
  -50.5788   -0.5927   13.4763 C   0  0  0  0  0  0
  -49.2137   -0.3814   13.6702 C   0  0  0  0  0  0
  -51.8179   -7.9523   17.6102 H   0  0  0  0  0  0
  -54.7767   -9.2832   16.2645 H   0  0  0  0  0  0
  -56.7507   -7.4300   15.1181 H   0  0  0  0  0  0
  -49.3060    1.3165   12.7959 H   0  0  0  0  0  0
  1  8  1  0  0  0
  1  9  1  0  0  0
  2 11  1  0  0  0
  2 22  1  0  0  0
  3 15  1  0  0  0
  3 23  1  0  0  0
  4 16  1  0  0  0
  4 24  1  0  0  0
  5 10  2  0  0  0
  6 21  1  0  0  0
  6 25  1  0  0  0
  7  8  2  0  0  0
  7 10  1  0  0  0
  7 11  1  0  0  0
  8 14  1  0  0  0
  9 12  1  0  0  0
  9 13  2  0  0  0
 10 13  1  0  0  0
 11 15  2  0  0  0
 12 17  2  0  0  0
 12 18  1  0  0  0
 14 16  2  0  0  0
 15 16  1  0  0  0
 17 19  1  0  0  0
 18 20  2  0  0  0
 19 21  2  0  0  0
 20 21  1  0  0  0
M  END
>  <CHROM.0>
-61.11470394,-178.29914877,69.00556999

>  <CHROM.1>
-0.20599206,-53.75294265,179.80776977,-174.08035184,-170.06141936,-51.97348281
-4.58244440,15.28916409,0.90882971,-0.33043768,-0.57579975

>  <Name>
5281697

>  <PUBCHEM_ATOM_DEF_STEREO_COUNT>
0

>  <PUBCHEM_ATOM_UDEF_STEREO_COUNT>
0

>  <PUBCHEM_BOND_DEF_STEREO_COUNT>
0

>  <PUBCHEM_BOND_UDEF_STEREO_COUNT>
0

>  <PUBCHEM_CACTVS_TAUTO_COUNT>
95

>  <PUBCHEM_COMPONENT_COUNT>
1

>  <PUBCHEM_COMPOUND_CID>
5281697

>  <PUBCHEM_CONFORMER_DIVERSEORDER>
1

>  <PUBCHEM_CONFORMER_ID>
005097A100000001

>  <PUBCHEM_CONFORMER_RMSD>
0.6

>  <PUBCHEM_COORDINATE_TYPE>
2
5
10

>  <PUBCHEM_EFFECTIVE_ROTOR_COUNT>
1

>  <PUBCHEM_FEATURE_SELFOVERLAP>
45.711

>  <PUBCHEM_HEAVY_ATOM_COUNT>
21

>  <PUBCHEM_ISOTOPIC_ATOM_COUNT>
0

>  <PUBCHEM_MMFF94_ENERGY>
63.223

>  <PUBCHEM_MMFF94_PARTIAL_CHARGES>
31
1 -0.16
10 0.47
11 0.08
12 0.03
13 -0.14
14 -0.15
15 0.08
16 0.08
17 -0.15
18 -0.15
19 -0.15
2 -0.53
20 -0.15
21 0.08
22 0.15
23 0.15
24 0.15
25 0.15
26 0.15
27 0.15
28 0.45
29 0.45
3 -0.53
30 0.45
31 0.45
4 -0.53
5 -0.57
6 -0.53
7 0.09
8 0.08
9 0.05

>  <PUBCHEM_PHARMACOPHORE_FEATURES>
9
1 1 acceptor
1 2 donor
1 3 donor
1 4 donor
1 5 acceptor
1 6 donor
6 1 7 8 9 10 13 rings
6 12 17 18 19 20 21 rings
6 7 8 11 14 15 16 rings

>  <PUBCHEM_SHAPE_FINGERPRINT>
10319926 262 18339625825081195930
10411042 1 17833271204996093459
10493431 412 18339369548524999705
10498660 4 18336542707697077949
10608611 8 18342173410280654128
10646746 165 18410573976930762244
11315181 36 17967813890389513380
11578080 2 13756702948478097673
11595378 159 17530951459133022432
12107183 9 17901657173352244522
12173636 292 18409726240512267175
12236239 1 17458623445659141570
12390115 104 18270976634926273329
12403259 415 18201996655522882608
12596602 18 16660369224522060160
12916748 109 18408890624269960579
13140716 1 17974859676664193147
13402501 40 18342737420969964016
13544592 145 18270128920288381310
14790565 3 17908994201191005865
15042514 8 18191873533892405547
15196674 1 18410856529976081566
15375358 24 18343866615200910982
18186145 218 18201727214817350440
200 152 16845855685150138058
20510252 161 18342459248711938305
20645477 56 18410293622761219728
20645477 70 17203057288073627646
21033648 29 18342165666017276744
21065198 57 18411699928693820962
21236236 1 18341332275253441647
21267235 1 18336835306807786307
21279426 13 18269558226339808350
21421861 104 17750502985271953402
22122407 14 15430327897065223269
221357 26 18131628967532776153
23175994 123 17275108344395955280
23227448 37 18341048618053264060
23402539 116 18412538846827169727
23402655 69 18131068208529289652
23557571 272 18342746251538334052
23559900 14 18271526391151403446
3004659 81 18335707088557568278
335352 9 18410856568245613789
350125 39 18409452522194264837
351380 180 18342174479584923540
3545911 37 18341896294727416792
4028521 119 18341892969874116496
4073 2 18114749334839713034
4214541 1 18411419514305071984
495365 180 17346303926350983370
5104073 3 18335985259569948114
633830 44 18200025115004324501
69090 78 18343580754709273606
77779 3 18411982455700122788
9709674 26 18342463659786276182

>  <PUBCHEM_SHAPE_MULTIPOLES>
396.95
11.7
2.35
0.66
9.05
0.35
0
-3.96
0.51
-2.32
-0.07
0.24
-0.01
0.68

>  <PUBCHEM_SHAPE_SELFOVERLAP>
891.042

>  <PUBCHEM_SHAPE_VOLUME>
208.7

>  <RI>
-6.90277e+08

>  <Rbt.Current_Directory>
/root/miniconda3/envs/rdock/share/rxdock-2013.1.1_148c5bd1-0/data/ligands/prepped_ligands/Scutellarein

>  <Rbt.Executable>
rbdock/0.1.0

>  <Rbt.Library>
librxdock.so/0.1.0

>  <Rbt.Parameter_File>
/root/miniconda3/envs/rdock/share/rxdock-2013.1.1_148c5bd1-0/data/scripts/dock.prm

>  <Rbt.Receptor>
def.prm

>  <SCORE>
-12.1398

>  <SCORE.INTER>
-13.365

>  <SCORE.INTER.CONST>
1

>  <SCORE.INTER.POLAR>
-0.453698

>  <SCORE.INTER.REPUL>
0.149691

>  <SCORE.INTER.ROT>
1

>  <SCORE.INTER.VDW>
-18.9709

>  <SCORE.INTER.norm>
-0.636429

>  <SCORE.INTRA>
2.15319

>  <SCORE.INTRA.DIHEDRAL>
2.06949

>  <SCORE.INTRA.DIHEDRAL.0>
1.23292

>  <SCORE.INTRA.POLAR>
0.290421

>  <SCORE.INTRA.POLAR.0>
-0.398136

>  <SCORE.INTRA.REPUL>
0

>  <SCORE.INTRA.REPUL.0>
0

>  <SCORE.INTRA.VDW>
0.131014

>  <SCORE.INTRA.VDW.0>
1.00302

>  <SCORE.INTRA.norm>
0.102533

>  <SCORE.RESTR>
0

>  <SCORE.RESTR.CAVITY>
0

>  <SCORE.RESTR.norm>
0

>  <SCORE.SYSTEM>
-0.928016

>  <SCORE.SYSTEM.CONST>
0

>  <SCORE.SYSTEM.DIHEDRAL>
0.207695

>  <SCORE.SYSTEM.POLAR>
-0.0158904

>  <SCORE.SYSTEM.VDW>
-0.977836

>  <SCORE.SYSTEM.norm>
-0.0441913

>  <SCORE.heavy>
21

>  <SCORE.norm>
-0.578087

$$$$
5281697
  RxDock  02242113253D
librxdock.so/0.1.0
 25 27  0  0  0  0  0  0  0  0999 V2000
  -51.6209   -2.7511   14.6407 O   0  0  0  0  0  0
  -46.8825   -1.7557   14.6330 O   0  0  0  0  0  0
  -47.4093    0.5522   13.2749 O   0  0  0  0  0  0
  -50.0077    1.2129   12.5998 O   0  0  0  0  0  0
  -47.8698   -3.9071   15.7326 O   0  0  0  0  0  0
  -56.0759   -6.8580   16.4486 O   0  0  0  0  0  0
  -49.2343   -2.3001   14.6649 C   0  0  0  0  0  0
  -50.5431   -1.9639   14.3233 C   0  0  0  0  0  0
  -51.3948   -3.9361   15.3244 C   0  0  0  0  0  0
  -48.9915   -3.5518   15.3983 C   0  0  0  0  0  0
  -48.1748   -1.4594   14.3162 C   0  0  0  0  0  0
  -52.6224   -4.7018   15.6199 C   0  0  0  0  0  0
  -50.1836   -4.3647   15.7139 C   0  0  0  0  0  0
  -50.8006   -0.7814   13.6293 C   0  0  0  0  0  0
  -48.4353   -0.2774   13.6216 C   0  0  0  0  0  0
  -49.7452    0.0609   13.2789 C   0  0  0  0  0  0
  -53.8560   -4.2664   15.1296 C   0  0  0  0  0  0
  -52.5552   -5.8654   16.3899 C   0  0  0  0  0  0
  -55.0156   -4.9902   15.4081 C   0  0  0  0  0  0
  -53.7147   -6.5892   16.6682 C   0  0  0  0  0  0
  -54.9448   -6.1515   16.1774 C   0  0  0  0  0  0
  -46.7627   -2.7126   14.7288 H   0  0  0  0  0  0
  -46.6115    0.0124   13.1371 H   0  0  0  0  0  0
  -50.9240    1.1742   12.2749 H   0  0  0  0  0  0
  -55.8625   -7.8070   16.4480 H   0  0  0  0  0  0
  1  8  1  0  0  0
  1  9  1  0  0  0
  2 11  1  0  0  0
  2 22  1  0  0  0
  3 15  1  0  0  0
  3 23  1  0  0  0
  4 16  1  0  0  0
  4 24  1  0  0  0
  5 10  2  0  0  0
  6 21  1  0  0  0
  6 25  1  0  0  0
  7  8  2  0  0  0
  7 10  1  0  0  0
  7 11  1  0  0  0
  8 14  1  0  0  0
  9 12  1  0  0  0
  9 13  2  0  0  0
 10 13  1  0  0  0
 11 15  2  0  0  0
 12 17  2  0  0  0
 12 18  1  0  0  0
 14 16  2  0  0  0
 15 16  1  0  0  0
 17 19  1  0  0  0
 18 20  2  0  0  0
 19 21  2  0  0  0
 20 21  1  0  0  0
M  END
>  <CHROM.0>
-58.47394022,65.30617830,-59.05181405

>  <CHROM.1>
25.84811283,30.10217175,-12.97791688,143.79585887,4.81522936,-50.89796599
-3.02821609,14.87693712,2.36992025,0.10571149,2.62256610

>  <Name>
5281697

>  <PUBCHEM_ATOM_DEF_STEREO_COUNT>
0

>  <PUBCHEM_ATOM_UDEF_STEREO_COUNT>
0

>  <PUBCHEM_BOND_DEF_STEREO_COUNT>
0

>  <PUBCHEM_BOND_UDEF_STEREO_COUNT>
0

>  <PUBCHEM_CACTVS_TAUTO_COUNT>
95

>  <PUBCHEM_COMPONENT_COUNT>
1

>  <PUBCHEM_COMPOUND_CID>
5281697

>  <PUBCHEM_CONFORMER_DIVERSEORDER>
1

>  <PUBCHEM_CONFORMER_ID>
005097A100000001

>  <PUBCHEM_CONFORMER_RMSD>
0.6

>  <PUBCHEM_COORDINATE_TYPE>
2
5
10

>  <PUBCHEM_EFFECTIVE_ROTOR_COUNT>
1

>  <PUBCHEM_FEATURE_SELFOVERLAP>
45.711

>  <PUBCHEM_HEAVY_ATOM_COUNT>
21

>  <PUBCHEM_ISOTOPIC_ATOM_COUNT>
0

>  <PUBCHEM_MMFF94_ENERGY>
63.223

>  <PUBCHEM_MMFF94_PARTIAL_CHARGES>
31
1 -0.16
10 0.47
11 0.08
12 0.03
13 -0.14
14 -0.15
15 0.08
16 0.08
17 -0.15
18 -0.15
19 -0.15
2 -0.53
20 -0.15
21 0.08
22 0.15
23 0.15
24 0.15
25 0.15
26 0.15
27 0.15
28 0.45
29 0.45
3 -0.53
30 0.45
31 0.45
4 -0.53
5 -0.57
6 -0.53
7 0.09
8 0.08
9 0.05

>  <PUBCHEM_PHARMACOPHORE_FEATURES>
9
1 1 acceptor
1 2 donor
1 3 donor
1 4 donor
1 5 acceptor
1 6 donor
6 1 7 8 9 10 13 rings
6 12 17 18 19 20 21 rings
6 7 8 11 14 15 16 rings

>  <PUBCHEM_SHAPE_FINGERPRINT>
10319926 262 18339625825081195930
10411042 1 17833271204996093459
10493431 412 18339369548524999705
10498660 4 18336542707697077949
10608611 8 18342173410280654128
10646746 165 18410573976930762244
11315181 36 17967813890389513380
11578080 2 13756702948478097673
11595378 159 17530951459133022432
12107183 9 17901657173352244522
12173636 292 18409726240512267175
12236239 1 17458623445659141570
12390115 104 18270976634926273329
12403259 415 18201996655522882608
12596602 18 16660369224522060160
12916748 109 18408890624269960579
13140716 1 17974859676664193147
13402501 40 18342737420969964016
13544592 145 18270128920288381310
14790565 3 17908994201191005865
15042514 8 18191873533892405547
15196674 1 18410856529976081566
15375358 24 18343866615200910982
18186145 218 18201727214817350440
200 152 16845855685150138058
20510252 161 18342459248711938305
20645477 56 18410293622761219728
20645477 70 17203057288073627646
21033648 29 18342165666017276744
21065198 57 18411699928693820962
21236236 1 18341332275253441647
21267235 1 18336835306807786307
21279426 13 18269558226339808350
21421861 104 17750502985271953402
22122407 14 15430327897065223269
221357 26 18131628967532776153
23175994 123 17275108344395955280
23227448 37 18341048618053264060
23402539 116 18412538846827169727
23402655 69 18131068208529289652
23557571 272 18342746251538334052
23559900 14 18271526391151403446
3004659 81 18335707088557568278
335352 9 18410856568245613789
350125 39 18409452522194264837
351380 180 18342174479584923540
3545911 37 18341896294727416792
4028521 119 18341892969874116496
4073 2 18114749334839713034
4214541 1 18411419514305071984
495365 180 17346303926350983370
5104073 3 18335985259569948114
633830 44 18200025115004324501
69090 78 18343580754709273606
77779 3 18411982455700122788
9709674 26 18342463659786276182

>  <PUBCHEM_SHAPE_MULTIPOLES>
396.95
11.7
2.35
0.66
9.05
0.35
0
-3.96
0.51
-2.32
-0.07
0.24
-0.01
0.68

>  <PUBCHEM_SHAPE_SELFOVERLAP>
891.042

>  <PUBCHEM_SHAPE_VOLUME>
208.7

>  <RI>
-6.90277e+08

>  <Rbt.Current_Directory>
/root/miniconda3/envs/rdock/share/rxdock-2013.1.1_148c5bd1-0/data/ligands/prepped_ligands/Scutellarein

>  <Rbt.Executable>
rbdock/0.1.0

>  <Rbt.Library>
librxdock.so/0.1.0

>  <Rbt.Parameter_File>
/root/miniconda3/envs/rdock/share/rxdock-2013.1.1_148c5bd1-0/data/scripts/dock.prm

>  <Rbt.Receptor>
def.prm

>  <SCORE>
-19.1905

>  <SCORE.INTER>
-20.9912

>  <SCORE.INTER.CONST>
1

>  <SCORE.INTER.POLAR>
-2.97133

>  <SCORE.INTER.REPUL>
0.254756

>  <SCORE.INTER.ROT>
1

>  <SCORE.INTER.VDW>
-18.5625

>  <SCORE.INTER.norm>
-0.999583

>  <SCORE.INTRA>
2.81607

>  <SCORE.INTRA.DIHEDRAL>
2.83193

>  <SCORE.INTRA.DIHEDRAL.0>
1.23292

>  <SCORE.INTRA.POLAR>
0.371346

>  <SCORE.INTRA.POLAR.0>
-0.398136

>  <SCORE.INTRA.REPUL>
0

>  <SCORE.INTRA.REPUL.0>
0

>  <SCORE.INTRA.VDW>
0.137524

>  <SCORE.INTRA.VDW.0>
1.00302

>  <SCORE.INTRA.norm>
0.134098

>  <SCORE.RESTR>
0

>  <SCORE.RESTR.CAVITY>
0

>  <SCORE.RESTR.norm>
0

>  <SCORE.SYSTEM>
-1.0153

>  <SCORE.SYSTEM.CONST>
0

>  <SCORE.SYSTEM.DIHEDRAL>
0.144312

>  <SCORE.SYSTEM.POLAR>
-0.00316179

>  <SCORE.SYSTEM.VDW>
-1.0767

>  <SCORE.SYSTEM.norm>
-0.0483475

>  <SCORE.heavy>
21

>  <SCORE.norm>
-0.913832

$$$$
5281697
  RxDock  02242113253D
librxdock.so/0.1.0
 25 27  0  0  0  0  0  0  0  0999 V2000
  -49.7589   -3.8922   15.9669 O   0  0  0  0  0  0
  -46.1135   -1.0229   14.5808 O   0  0  0  0  0  0
  -47.8553    0.3603   12.9993 O   0  0  0  0  0  0
  -50.5212   -0.3643   12.8922 O   0  0  0  0  0  0
  -45.7981   -2.9874   16.2701 O   0  0  0  0  0  0
  -51.4307   -8.8134   19.5689 O   0  0  0  0  0  0
  -47.8950   -2.4825   15.3046 C   0  0  0  0  0  0
  -49.2397   -2.8450   15.2487 C   0  0  0  0  0  0
  -48.9051   -4.6251   16.7772 C   0  0  0  0  0  0
  -46.9881   -3.2519   16.1702 C   0  0  0  0  0  0
  -47.4215   -1.4058   14.5515 C   0  0  0  0  0  0
  -49.5677   -5.7236   17.5085 C   0  0  0  0  0  0
  -47.5948   -4.3702   16.9204 C   0  0  0  0  0  0
  -50.1211   -2.1305   14.4369 C   0  0  0  0  0  0
  -48.3053   -0.6931   13.7401 C   0  0  0  0  0  0
  -49.6521   -1.0546   13.6829 C   0  0  0  0  0  0
  -48.9351   -6.9625   17.6375 C   0  0  0  0  0  0
  -50.8294   -5.5282   18.0755 C   0  0  0  0  0  0
  -49.5608   -8.0000   18.3289 C   0  0  0  0  0  0
  -51.4548   -6.5656   18.7672 C   0  0  0  0  0  0
  -50.8206   -7.8015   18.8938 C   0  0  0  0  0  0
  -45.7404   -1.0046   13.6866 H   0  0  0  0  0  0
  -46.9726    0.1386   12.6552 H   0  0  0  0  0  0
  -50.0317    0.3531   12.4535 H   0  0  0  0  0  0
  -52.2640   -8.4830   19.9463 H   0  0  0  0  0  0
  1  8  1  0  0  0
  1  9  1  0  0  0
  2 11  1  0  0  0
  2 22  1  0  0  0
  3 15  1  0  0  0
  3 23  1  0  0  0
  4 16  1  0  0  0
  4 24  1  0  0  0
  5 10  2  0  0  0
  6 21  1  0  0  0
  6 25  1  0  0  0
  7  8  2  0  0  0
  7 10  1  0  0  0
  7 11  1  0  0  0
  8 14  1  0  0  0
  9 12  1  0  0  0
  9 13  2  0  0  0
 10 13  1  0  0  0
 11 15  2  0  0  0
 12 17  2  0  0  0
 12 18  1  0  0  0
 14 16  2  0  0  0
 15 16  1  0  0  0
 17 19  1  0  0  0
 18 20  2  0  0  0
 19 21  2  0  0  0
 20 21  1  0  0  0
M  END
>  <CHROM.0>
59.03976700,63.08564710,173.14897423

>  <CHROM.1>
124.98583809,38.42156772,179.16767936,175.97824430,139.12032592,-48.96748296
-3.74640304,16.05580359,1.85730771,0.12911242,2.47652090

>  <Name>
5281697

>  <PUBCHEM_ATOM_DEF_STEREO_COUNT>
0

>  <PUBCHEM_ATOM_UDEF_STEREO_COUNT>
0

>  <PUBCHEM_BOND_DEF_STEREO_COUNT>
0

>  <PUBCHEM_BOND_UDEF_STEREO_COUNT>
0

>  <PUBCHEM_CACTVS_TAUTO_COUNT>
95

>  <PUBCHEM_COMPONENT_COUNT>
1

>  <PUBCHEM_COMPOUND_CID>
5281697

>  <PUBCHEM_CONFORMER_DIVERSEORDER>
1

>  <PUBCHEM_CONFORMER_ID>
005097A100000001

>  <PUBCHEM_CONFORMER_RMSD>
0.6

>  <PUBCHEM_COORDINATE_TYPE>
2
5
10

>  <PUBCHEM_EFFECTIVE_ROTOR_COUNT>
1

>  <PUBCHEM_FEATURE_SELFOVERLAP>
45.711

>  <PUBCHEM_HEAVY_ATOM_COUNT>
21

>  <PUBCHEM_ISOTOPIC_ATOM_COUNT>
0

>  <PUBCHEM_MMFF94_ENERGY>
63.223

>  <PUBCHEM_MMFF94_PARTIAL_CHARGES>
31
1 -0.16
10 0.47
11 0.08
12 0.03
13 -0.14
14 -0.15
15 0.08
16 0.08
17 -0.15
18 -0.15
19 -0.15
2 -0.53
20 -0.15
21 0.08
22 0.15
23 0.15
24 0.15
25 0.15
26 0.15
27 0.15
28 0.45
29 0.45
3 -0.53
30 0.45
31 0.45
4 -0.53
5 -0.57
6 -0.53
7 0.09
8 0.08
9 0.05

>  <PUBCHEM_PHARMACOPHORE_FEATURES>
9
1 1 acceptor
1 2 donor
1 3 donor
1 4 donor
1 5 acceptor
1 6 donor
6 1 7 8 9 10 13 rings
6 12 17 18 19 20 21 rings
6 7 8 11 14 15 16 rings

>  <PUBCHEM_SHAPE_FINGERPRINT>
10319926 262 18339625825081195930
10411042 1 17833271204996093459
10493431 412 18339369548524999705
10498660 4 18336542707697077949
10608611 8 18342173410280654128
10646746 165 18410573976930762244
11315181 36 17967813890389513380
11578080 2 13756702948478097673
11595378 159 17530951459133022432
12107183 9 17901657173352244522
12173636 292 18409726240512267175
12236239 1 17458623445659141570
12390115 104 18270976634926273329
12403259 415 18201996655522882608
12596602 18 16660369224522060160
12916748 109 18408890624269960579
13140716 1 17974859676664193147
13402501 40 18342737420969964016
13544592 145 18270128920288381310
14790565 3 17908994201191005865
15042514 8 18191873533892405547
15196674 1 18410856529976081566
15375358 24 18343866615200910982
18186145 218 18201727214817350440
200 152 16845855685150138058
20510252 161 18342459248711938305
20645477 56 18410293622761219728
20645477 70 17203057288073627646
21033648 29 18342165666017276744
21065198 57 18411699928693820962
21236236 1 18341332275253441647
21267235 1 18336835306807786307
21279426 13 18269558226339808350
21421861 104 17750502985271953402
22122407 14 15430327897065223269
221357 26 18131628967532776153
23175994 123 17275108344395955280
23227448 37 18341048618053264060
23402539 116 18412538846827169727
23402655 69 18131068208529289652
23557571 272 18342746251538334052
23559900 14 18271526391151403446
3004659 81 18335707088557568278
335352 9 18410856568245613789
350125 39 18409452522194264837
351380 180 18342174479584923540
3545911 37 18341896294727416792
4028521 119 18341892969874116496
4073 2 18114749334839713034
4214541 1 18411419514305071984
495365 180 17346303926350983370
5104073 3 18335985259569948114
633830 44 18200025115004324501
69090 78 18343580754709273606
77779 3 18411982455700122788
9709674 26 18342463659786276182

>  <PUBCHEM_SHAPE_MULTIPOLES>
396.95
11.7
2.35
0.66
9.05
0.35
0
-3.96
0.51
-2.32
-0.07
0.24
-0.01
0.68

>  <PUBCHEM_SHAPE_SELFOVERLAP>
891.042

>  <PUBCHEM_SHAPE_VOLUME>
208.7

>  <RI>
-6.90277e+08

>  <Rbt.Current_Directory>
/root/miniconda3/envs/rdock/share/rxdock-2013.1.1_148c5bd1-0/data/ligands/prepped_ligands/Scutellarein

>  <Rbt.Executable>
rbdock/0.1.0

>  <Rbt.Library>
librxdock.so/0.1.0

>  <Rbt.Parameter_File>
/root/miniconda3/envs/rdock/share/rxdock-2013.1.1_148c5bd1-0/data/scripts/dock.prm

>  <Rbt.Receptor>
def.prm

>  <SCORE>
-14.1105

>  <SCORE.INTER>
-16.318

>  <SCORE.INTER.CONST>
1

>  <SCORE.INTER.POLAR>
-2.03815

>  <SCORE.INTER.REPUL>
0.0175679

>  <SCORE.INTER.ROT>
1

>  <SCORE.INTER.VDW>
-15.8761

>  <SCORE.INTER.norm>
-0.777045

>  <SCORE.INTRA>
3.18603

>  <SCORE.INTRA.DIHEDRAL>
5.9645

>  <SCORE.INTRA.DIHEDRAL.0>
1.23292

>  <SCORE.INTRA.POLAR>
0.255973

>  <SCORE.INTRA.POLAR.0>
-0.398136

>  <SCORE.INTRA.REPUL>
0

>  <SCORE.INTRA.REPUL.0>
0

>  <SCORE.INTRA.VDW>
-0.666532

>  <SCORE.INTRA.VDW.0>
1.00302

>  <SCORE.INTRA.norm>
0.151715

>  <SCORE.RESTR>
0

>  <SCORE.RESTR.CAVITY>
0

>  <SCORE.RESTR.norm>
0

>  <SCORE.SYSTEM>
-0.978617

>  <SCORE.SYSTEM.CONST>
0

>  <SCORE.SYSTEM.DIHEDRAL>
0.170104

>  <SCORE.SYSTEM.VDW>
-1.06367

>  <SCORE.SYSTEM.norm>
-0.0466008

>  <SCORE.heavy>
21

>  <SCORE.norm>
-0.671931

$$$$
