5281697
  RxDock  02242112133D
librxdock.so/0.1.0
 25 27  0  0  0  0  0  0  0  0999 V2000
  -52.2140   -4.0561   14.8297 O   0  0  0  0  0  0
  -52.9575   -8.2252   17.1769 O   0  0  0  0  0  0
  -55.5921   -8.1053   16.4747 O   0  0  0  0  0  0
  -56.5408   -5.9900   14.9684 O   0  0  0  0  0  0
  -50.6148   -7.0828   17.0390 O   0  0  0  0  0  0
  -47.9393    0.3055   13.1902 O   0  0  0  0  0  0
  -52.5320   -6.1486   16.0212 C   0  0  0  0  0  0
  -53.0134   -5.0838   15.2616 C   0  0  0  0  0  0
  -50.8703   -4.0760   15.1716 C   0  0  0  0  0  0
  -51.1054   -6.1779   16.3780 C   0  0  0  0  0  0
  -53.3926   -7.1689   16.4330 C   0  0  0  0  0  0
  -50.1017   -2.9275   14.6512 C   0  0  0  0  0  0
  -50.2879   -5.0481   15.8915 C   0  0  0  0  0  0
  -54.3621   -5.0332   14.9082 C   0  0  0  0  0  0
  -54.7412   -7.1154   16.0784 C   0  0  0  0  0  0
  -55.2250   -6.0500   15.3178 C   0  0  0  0  0  0
  -50.7679   -1.7980   14.1694 C   0  0  0  0  0  0
  -48.7054   -2.9649   14.6398 C   0  0  0  0  0  0
  -50.0419   -0.7126   13.6785 C   0  0  0  0  0  0
  -47.9794   -1.8795   14.1492 C   0  0  0  0  0  0
  -48.6477   -0.7535   13.6685 C   0  0  0  0  0  0
  -52.4229   -8.8279   16.6383 H   0  0  0  0  0  0
  -55.1629   -8.9629   16.3101 H   0  0  0  0  0  0
  -57.0541   -6.4960   15.6220 H   0  0  0  0  0  0
  -47.0881   -0.0146   12.8453 H   0  0  0  0  0  0
  1  8  1  0  0  0
  1  9  1  0  0  0
  2 11  1  0  0  0
  2 22  1  0  0  0
  3 15  1  0  0  0
  3 23  1  0  0  0
  4 16  1  0  0  0
  4 24  1  0  0  0
  5 10  2  0  0  0
  6 21  1  0  0  0
  6 25  1  0  0  0
  7  8  2  0  0  0
  7 10  1  0  0  0
  7 11  1  0  0  0
  8 14  1  0  0  0
  9 12  1  0  0  0
  9 13  2  0  0  0
 10 13  1  0  0  0
 11 15  2  0  0  0
 12 17  2  0  0  0
 12 18  1  0  0  0
 14 16  2  0  0  0
 15 16  1  0  0  0
 17 19  1  0  0  0
 18 20  2  0  0  0
 19 21  2  0  0  0
 20 21  1  0  0  0
M  END
>  <CHROM.0>
-172.28318022,176.76527355,63.55165423

>  <CHROM.1>
-72.56718826,-45.54726834,-154.75120269,-152.23222123,15.13333657,-51.84891442
-4.64105866,15.26109206,0.82644627,-0.17398685,-0.52109770

>  <Name>
5281697

>  <PUBCHEM_ATOM_DEF_STEREO_COUNT>
0

>  <PUBCHEM_ATOM_UDEF_STEREO_COUNT>
0

>  <PUBCHEM_BOND_DEF_STEREO_COUNT>
0

>  <PUBCHEM_BOND_UDEF_STEREO_COUNT>
0

>  <PUBCHEM_CACTVS_TAUTO_COUNT>
95

>  <PUBCHEM_COMPONENT_COUNT>
1

>  <PUBCHEM_COMPOUND_CID>
5281697

>  <PUBCHEM_CONFORMER_DIVERSEORDER>
1

>  <PUBCHEM_CONFORMER_ID>
005097A100000001

>  <PUBCHEM_CONFORMER_RMSD>
0.6

>  <PUBCHEM_COORDINATE_TYPE>
2
5
10

>  <PUBCHEM_EFFECTIVE_ROTOR_COUNT>
1

>  <PUBCHEM_FEATURE_SELFOVERLAP>
45.711

>  <PUBCHEM_HEAVY_ATOM_COUNT>
21

>  <PUBCHEM_ISOTOPIC_ATOM_COUNT>
0

>  <PUBCHEM_MMFF94_ENERGY>
63.223

>  <PUBCHEM_MMFF94_PARTIAL_CHARGES>
31
1 -0.16
10 0.47
11 0.08
12 0.03
13 -0.14
14 -0.15
15 0.08
16 0.08
17 -0.15
18 -0.15
19 -0.15
2 -0.53
20 -0.15
21 0.08
22 0.15
23 0.15
24 0.15
25 0.15
26 0.15
27 0.15
28 0.45
29 0.45
3 -0.53
30 0.45
31 0.45
4 -0.53
5 -0.57
6 -0.53
7 0.09
8 0.08
9 0.05

>  <PUBCHEM_PHARMACOPHORE_FEATURES>
9
1 1 acceptor
1 2 donor
1 3 donor
1 4 donor
1 5 acceptor
1 6 donor
6 1 7 8 9 10 13 rings
6 12 17 18 19 20 21 rings
6 7 8 11 14 15 16 rings

>  <PUBCHEM_SHAPE_FINGERPRINT>
10319926 262 18339625825081195930
10411042 1 17833271204996093459
10493431 412 18339369548524999705
10498660 4 18336542707697077949
10608611 8 18342173410280654128
10646746 165 18410573976930762244
11315181 36 17967813890389513380
11578080 2 13756702948478097673
11595378 159 17530951459133022432
12107183 9 17901657173352244522
12173636 292 18409726240512267175
12236239 1 17458623445659141570
12390115 104 18270976634926273329
12403259 415 18201996655522882608
12596602 18 16660369224522060160
12916748 109 18408890624269960579
13140716 1 17974859676664193147
13402501 40 18342737420969964016
13544592 145 18270128920288381310
14790565 3 17908994201191005865
15042514 8 18191873533892405547
15196674 1 18410856529976081566
15375358 24 18343866615200910982
18186145 218 18201727214817350440
200 152 16845855685150138058
20510252 161 18342459248711938305
20645477 56 18410293622761219728
20645477 70 17203057288073627646
21033648 29 18342165666017276744
21065198 57 18411699928693820962
21236236 1 18341332275253441647
21267235 1 18336835306807786307
21279426 13 18269558226339808350
21421861 104 17750502985271953402
22122407 14 15430327897065223269
221357 26 18131628967532776153
23175994 123 17275108344395955280
23227448 37 18341048618053264060
23402539 116 18412538846827169727
23402655 69 18131068208529289652
23557571 272 18342746251538334052
23559900 14 18271526391151403446
3004659 81 18335707088557568278
335352 9 18410856568245613789
350125 39 18409452522194264837
351380 180 18342174479584923540
3545911 37 18341896294727416792
4028521 119 18341892969874116496
4073 2 18114749334839713034
4214541 1 18411419514305071984
495365 180 17346303926350983370
5104073 3 18335985259569948114
633830 44 18200025115004324501
69090 78 18343580754709273606
77779 3 18411982455700122788
9709674 26 18342463659786276182

>  <PUBCHEM_SHAPE_MULTIPOLES>
396.95
11.7
2.35
0.66
9.05
0.35
0
-3.96
0.51
-2.32
-0.07
0.24
-0.01
0.68

>  <PUBCHEM_SHAPE_SELFOVERLAP>
891.042

>  <PUBCHEM_SHAPE_VOLUME>
208.7

>  <RI>
-1.84892e+08

>  <Rbt.Current_Directory>
/root/miniconda3/envs/rdock/share/rxdock-2013.1.1_148c5bd1-0/data/ligands/prepped_ligands/Scutellarein

>  <Rbt.Executable>
rbdock/0.1.0

>  <Rbt.Library>
librxdock.so/0.1.0

>  <Rbt.Parameter_File>
/root/miniconda3/envs/rdock/share/rxdock-2013.1.1_148c5bd1-0/data/scripts/dock.prm

>  <Rbt.Receptor>
def.prm

>  <SCORE>
-13.7053

>  <SCORE.INTER>
-17.2113

>  <SCORE.INTER.CONST>
1

>  <SCORE.INTER.POLAR>
-1.76309

>  <SCORE.INTER.REPUL>
0.170968

>  <SCORE.INTER.ROT>
1

>  <SCORE.INTER.VDW>
-18.4716

>  <SCORE.INTER.norm>
-0.819583

>  <SCORE.INTRA>
4.42861

>  <SCORE.INTRA.DIHEDRAL>
7.80209

>  <SCORE.INTRA.DIHEDRAL.0>
1.23292

>  <SCORE.INTRA.POLAR>
0.355283

>  <SCORE.INTRA.POLAR.0>
-0.398136

>  <SCORE.INTRA.REPUL>
0

>  <SCORE.INTRA.REPUL.0>
0

>  <SCORE.INTRA.VDW>
-0.6804

>  <SCORE.INTRA.VDW.0>
1.00302

>  <SCORE.INTRA.norm>
0.210886

>  <SCORE.RESTR>
0

>  <SCORE.RESTR.CAVITY>
0

>  <SCORE.RESTR.norm>
0

>  <SCORE.SYSTEM>
-0.922628

>  <SCORE.SYSTEM.CONST>
0

>  <SCORE.SYSTEM.DIHEDRAL>
0.219252

>  <SCORE.SYSTEM.POLAR>
-0.00856237

>  <SCORE.SYSTEM.VDW>
-1.00314

>  <SCORE.SYSTEM.norm>
-0.0439347

>  <SCORE.heavy>
21

>  <SCORE.norm>
-0.652632

$$$$
5281697
  RxDock  02242112133D
librxdock.so/0.1.0
 25 27  0  0  0  0  0  0  0  0999 V2000
  -50.4612   -4.3692   15.7702 O   0  0  0  0  0  0
  -48.1974   -0.6012   13.7402 O   0  0  0  0  0  0
  -45.9000   -1.3471   15.0106 O   0  0  0  0  0  0
  -45.8695   -3.5760   16.6461 O   0  0  0  0  0  0
  -50.7192   -1.1256   13.3183 O   0  0  0  0  0  0
  -55.9353   -7.4905   16.2923 O   0  0  0  0  0  0
  -49.3741   -2.4645   14.7262 C   0  0  0  0  0  0
  -49.3552   -3.5878   15.5511 C   0  0  0  0  0  0
  -51.6504   -4.0198   15.1486 C   0  0  0  0  0  0
  -50.6314   -2.0960   14.0578 C   0  0  0  0  0  0
  -48.2164   -1.7057   14.5390 C   0  0  0  0  0  0
  -52.7738   -4.9302   15.4477 C   0  0  0  0  0  0
  -51.7933   -2.9670   14.3277 C   0  0  0  0  0  0
  -48.1749   -3.9599   16.1952 C   0  0  0  0  0  0
  -47.0374   -2.0800   15.1848 C   0  0  0  0  0  0
  -47.0166   -3.2045   16.0111 C   0  0  0  0  0  0
  -52.5454   -6.1233   16.1377 C   0  0  0  0  0  0
  -54.0699   -4.6019   15.0431 C   0  0  0  0  0  0
  -53.6068   -6.9831   16.4210 C   0  0  0  0  0  0
  -55.1313   -5.4615   15.3266 C   0  0  0  0  0  0
  -54.8997   -6.6521   16.0154 C   0  0  0  0  0  0
  -47.3978   -0.5864   13.1929 H   0  0  0  0  0  0
  -45.8445   -1.0846   14.0753 H   0  0  0  0  0  0
  -45.1374   -3.0415   16.2924 H   0  0  0  0  0  0
  -55.5782   -8.3524   16.5672 H   0  0  0  0  0  0
  1  8  1  0  0  0
  1  9  1  0  0  0
  2 11  1  0  0  0
  2 22  1  0  0  0
  3 15  1  0  0  0
  3 23  1  0  0  0
  4 16  1  0  0  0
  4 24  1  0  0  0
  5 10  2  0  0  0
  6 21  1  0  0  0
  6 25  1  0  0  0
  7  8  2  0  0  0
  7 10  1  0  0  0
  7 11  1  0  0  0
  8 14  1  0  0  0
  9 12  1  0  0  0
  9 13  2  0  0  0
 10 13  1  0  0  0
 11 15  2  0  0  0
 12 17  2  0  0  0
 12 18  1  0  0  0
 14 16  2  0  0  0
 15 16  1  0  0  0
 17 19  1  0  0  0
 18 20  2  0  0  0
 19 21  2  0  0  0
 20 21  1  0  0  0
M  END
>  <CHROM.0>
63.99547985,-65.60570692,59.49245281

>  <CHROM.1>
-137.00083584,-40.22132981,170.46189595,-14.04597810,-8.77631148,-50.55259154
-3.73937434,15.27145903,-2.65812678,-0.24076833,-0.61288153

>  <Name>
5281697

>  <PUBCHEM_ATOM_DEF_STEREO_COUNT>
0

>  <PUBCHEM_ATOM_UDEF_STEREO_COUNT>
0

>  <PUBCHEM_BOND_DEF_STEREO_COUNT>
0

>  <PUBCHEM_BOND_UDEF_STEREO_COUNT>
0

>  <PUBCHEM_CACTVS_TAUTO_COUNT>
95

>  <PUBCHEM_COMPONENT_COUNT>
1

>  <PUBCHEM_COMPOUND_CID>
5281697

>  <PUBCHEM_CONFORMER_DIVERSEORDER>
1

>  <PUBCHEM_CONFORMER_ID>
005097A100000001

>  <PUBCHEM_CONFORMER_RMSD>
0.6

>  <PUBCHEM_COORDINATE_TYPE>
2
5
10

>  <PUBCHEM_EFFECTIVE_ROTOR_COUNT>
1

>  <PUBCHEM_FEATURE_SELFOVERLAP>
45.711

>  <PUBCHEM_HEAVY_ATOM_COUNT>
21

>  <PUBCHEM_ISOTOPIC_ATOM_COUNT>
0

>  <PUBCHEM_MMFF94_ENERGY>
63.223

>  <PUBCHEM_MMFF94_PARTIAL_CHARGES>
31
1 -0.16
10 0.47
11 0.08
12 0.03
13 -0.14
14 -0.15
15 0.08
16 0.08
17 -0.15
18 -0.15
19 -0.15
2 -0.53
20 -0.15
21 0.08
22 0.15
23 0.15
24 0.15
25 0.15
26 0.15
27 0.15
28 0.45
29 0.45
3 -0.53
30 0.45
31 0.45
4 -0.53
5 -0.57
6 -0.53
7 0.09
8 0.08
9 0.05

>  <PUBCHEM_PHARMACOPHORE_FEATURES>
9
1 1 acceptor
1 2 donor
1 3 donor
1 4 donor
1 5 acceptor
1 6 donor
6 1 7 8 9 10 13 rings
6 12 17 18 19 20 21 rings
6 7 8 11 14 15 16 rings

>  <PUBCHEM_SHAPE_FINGERPRINT>
10319926 262 18339625825081195930
10411042 1 17833271204996093459
10493431 412 18339369548524999705
10498660 4 18336542707697077949
10608611 8 18342173410280654128
10646746 165 18410573976930762244
11315181 36 17967813890389513380
11578080 2 13756702948478097673
11595378 159 17530951459133022432
12107183 9 17901657173352244522
12173636 292 18409726240512267175
12236239 1 17458623445659141570
12390115 104 18270976634926273329
12403259 415 18201996655522882608
12596602 18 16660369224522060160
12916748 109 18408890624269960579
13140716 1 17974859676664193147
13402501 40 18342737420969964016
13544592 145 18270128920288381310
14790565 3 17908994201191005865
15042514 8 18191873533892405547
15196674 1 18410856529976081566
15375358 24 18343866615200910982
18186145 218 18201727214817350440
200 152 16845855685150138058
20510252 161 18342459248711938305
20645477 56 18410293622761219728
20645477 70 17203057288073627646
21033648 29 18342165666017276744
21065198 57 18411699928693820962
21236236 1 18341332275253441647
21267235 1 18336835306807786307
21279426 13 18269558226339808350
21421861 104 17750502985271953402
22122407 14 15430327897065223269
221357 26 18131628967532776153
23175994 123 17275108344395955280
23227448 37 18341048618053264060
23402539 116 18412538846827169727
23402655 69 18131068208529289652
23557571 272 18342746251538334052
23559900 14 18271526391151403446
3004659 81 18335707088557568278
335352 9 18410856568245613789
350125 39 18409452522194264837
351380 180 18342174479584923540
3545911 37 18341896294727416792
4028521 119 18341892969874116496
4073 2 18114749334839713034
4214541 1 18411419514305071984
495365 180 17346303926350983370
5104073 3 18335985259569948114
633830 44 18200025115004324501
69090 78 18343580754709273606
77779 3 18411982455700122788
9709674 26 18342463659786276182

>  <PUBCHEM_SHAPE_MULTIPOLES>
396.95
11.7
2.35
0.66
9.05
0.35
0
-3.96
0.51
-2.32
-0.07
0.24
-0.01
0.68

>  <PUBCHEM_SHAPE_SELFOVERLAP>
891.042

>  <PUBCHEM_SHAPE_VOLUME>
208.7

>  <RI>
-1.84892e+08

>  <Rbt.Current_Directory>
/root/miniconda3/envs/rdock/share/rxdock-2013.1.1_148c5bd1-0/data/ligands/prepped_ligands/Scutellarein

>  <Rbt.Executable>
rbdock/0.1.0

>  <Rbt.Library>
librxdock.so/0.1.0

>  <Rbt.Parameter_File>
/root/miniconda3/envs/rdock/share/rxdock-2013.1.1_148c5bd1-0/data/scripts/dock.prm

>  <Rbt.Receptor>
def.prm

>  <SCORE>
-17.7774

>  <SCORE.INTER>
-19.8677

>  <SCORE.INTER.CONST>
1

>  <SCORE.INTER.POLAR>
-2.46203

>  <SCORE.INTER.REPUL>
0

>  <SCORE.INTER.ROT>
1

>  <SCORE.INTER.VDW>
-17.8968

>  <SCORE.INTER.norm>
-0.946081

>  <SCORE.INTRA>
3.08491

>  <SCORE.INTRA.DIHEDRAL>
3.54204

>  <SCORE.INTRA.DIHEDRAL.0>
1.23292

>  <SCORE.INTRA.POLAR>
0.285878

>  <SCORE.INTRA.POLAR.0>
-0.398136

>  <SCORE.INTRA.REPUL>
0

>  <SCORE.INTRA.REPUL.0>
0

>  <SCORE.INTRA.VDW>
0.341904

>  <SCORE.INTRA.VDW.0>
1.00302

>  <SCORE.INTRA.norm>
0.1469

>  <SCORE.RESTR>
0

>  <SCORE.RESTR.CAVITY>
0

>  <SCORE.RESTR.norm>
0

>  <SCORE.SYSTEM>
-0.994592

>  <SCORE.SYSTEM.CONST>
0

>  <SCORE.SYSTEM.DIHEDRAL>
0.191523

>  <SCORE.SYSTEM.VDW>
-1.09035

>  <SCORE.SYSTEM.norm>
-0.0473615

>  <SCORE.heavy>
21

>  <SCORE.norm>
-0.846543

$$$$
5281697
  RxDock  02242112133D
librxdock.so/0.1.0
 25 27  0  0  0  0  0  0  0  0999 V2000
  -50.3810   -3.1199   15.1009 O   0  0  0  0  0  0
  -45.6952   -2.9317   16.3056 O   0  0  0  0  0  0
  -45.3937   -0.7896   14.6416 O   0  0  0  0  0  0
  -47.5525    0.1861   13.2164 O   0  0  0  0  0  0
  -47.3341   -4.7086   17.2898 O   0  0  0  0  0  0
  -55.8696   -6.1303   15.9925 O   0  0  0  0  0  0
  -48.0380   -3.0702   15.7393 C   0  0  0  0  0  0
  -49.1243   -2.5756   15.0197 C   0  0  0  0  0  0
  -50.5745   -4.2144   15.9300 C   0  0  0  0  0  0
  -48.2414   -4.2253   16.6269 C   0  0  0  0  0  0
  -46.7801   -2.4752   15.6180 C   0  0  0  0  0  0
  -51.9631   -4.7161   15.9470 C   0  0  0  0  0  0
  -49.6109   -4.7760   16.6774 C   0  0  0  0  0  0
  -48.9585   -1.4798   14.1722 C   0  0  0  0  0  0
  -46.6171   -1.3795   14.7693 C   0  0  0  0  0  0
  -47.7038   -0.8828   14.0480 C   0  0  0  0  0  0
  -52.9000   -4.2187   15.0378 C   0  0  0  0  0  0
  -52.3456   -5.6912   16.8713 C   0  0  0  0  0  0
  -54.2117   -4.6933   15.0533 C   0  0  0  0  0  0
  -53.6572   -6.1659   16.8866 C   0  0  0  0  0  0
  -54.5902   -5.6668   15.9777 C   0  0  0  0  0  0
  -44.9258   -2.3632   16.1508 H   0  0  0  0  0  0
  -45.3364   -0.3905   13.7561 H   0  0  0  0  0  0
  -48.3912    0.3268   12.7436 H   0  0  0  0  0  0
  -56.2963   -5.9049   15.1481 H   0  0  0  0  0  0
  1  8  1  0  0  0
  1  9  1  0  0  0
  2 11  1  0  0  0
  2 22  1  0  0  0
  3 15  1  0  0  0
  3 23  1  0  0  0
  4 16  1  0  0  0
  4 24  1  0  0  0
  5 10  2  0  0  0
  6 21  1  0  0  0
  6 25  1  0  0  0
  7  8  2  0  0  0
  7 10  1  0  0  0
  7 11  1  0  0  0
  8 14  1  0  0  0
  9 12  1  0  0  0
  9 13  2  0  0  0
 10 13  1  0  0  0
 11 15  2  0  0  0
 12 17  2  0  0  0
 12 18  1  0  0  0
 14 16  2  0  0  0
 15 16  1  0  0  0
 17 19  1  0  0  0
 18 20  2  0  0  0
 19 21  2  0  0  0
 20 21  1  0  0  0
M  END
>  <CHROM.0>
61.83539760,178.42866719,-63.49191371

>  <CHROM.1>
-175.86367707,151.90012457,-5.33027588,17.77454965,8.90991522,-49.81191684
-3.46182903,15.54450634,2.68292001,0.22840663,2.43700098

>  <Name>
5281697

>  <PUBCHEM_ATOM_DEF_STEREO_COUNT>
0

>  <PUBCHEM_ATOM_UDEF_STEREO_COUNT>
0

>  <PUBCHEM_BOND_DEF_STEREO_COUNT>
0

>  <PUBCHEM_BOND_UDEF_STEREO_COUNT>
0

>  <PUBCHEM_CACTVS_TAUTO_COUNT>
95

>  <PUBCHEM_COMPONENT_COUNT>
1

>  <PUBCHEM_COMPOUND_CID>
5281697

>  <PUBCHEM_CONFORMER_DIVERSEORDER>
1

>  <PUBCHEM_CONFORMER_ID>
005097A100000001

>  <PUBCHEM_CONFORMER_RMSD>
0.6

>  <PUBCHEM_COORDINATE_TYPE>
2
5
10

>  <PUBCHEM_EFFECTIVE_ROTOR_COUNT>
1

>  <PUBCHEM_FEATURE_SELFOVERLAP>
45.711

>  <PUBCHEM_HEAVY_ATOM_COUNT>
21

>  <PUBCHEM_ISOTOPIC_ATOM_COUNT>
0

>  <PUBCHEM_MMFF94_ENERGY>
63.223

>  <PUBCHEM_MMFF94_PARTIAL_CHARGES>
31
1 -0.16
10 0.47
11 0.08
12 0.03
13 -0.14
14 -0.15
15 0.08
16 0.08
17 -0.15
18 -0.15
19 -0.15
2 -0.53
20 -0.15
21 0.08
22 0.15
23 0.15
24 0.15
25 0.15
26 0.15
27 0.15
28 0.45
29 0.45
3 -0.53
30 0.45
31 0.45
4 -0.53
5 -0.57
6 -0.53
7 0.09
8 0.08
9 0.05

>  <PUBCHEM_PHARMACOPHORE_FEATURES>
9
1 1 acceptor
1 2 donor
1 3 donor
1 4 donor
1 5 acceptor
1 6 donor
6 1 7 8 9 10 13 rings
6 12 17 18 19 20 21 rings
6 7 8 11 14 15 16 rings

>  <PUBCHEM_SHAPE_FINGERPRINT>
10319926 262 18339625825081195930
10411042 1 17833271204996093459
10493431 412 18339369548524999705
10498660 4 18336542707697077949
10608611 8 18342173410280654128
10646746 165 18410573976930762244
11315181 36 17967813890389513380
11578080 2 13756702948478097673
11595378 159 17530951459133022432
12107183 9 17901657173352244522
12173636 292 18409726240512267175
12236239 1 17458623445659141570
12390115 104 18270976634926273329
12403259 415 18201996655522882608
12596602 18 16660369224522060160
12916748 109 18408890624269960579
13140716 1 17974859676664193147
13402501 40 18342737420969964016
13544592 145 18270128920288381310
14790565 3 17908994201191005865
15042514 8 18191873533892405547
15196674 1 18410856529976081566
15375358 24 18343866615200910982
18186145 218 18201727214817350440
200 152 16845855685150138058
20510252 161 18342459248711938305
20645477 56 18410293622761219728
20645477 70 17203057288073627646
21033648 29 18342165666017276744
21065198 57 18411699928693820962
21236236 1 18341332275253441647
21267235 1 18336835306807786307
21279426 13 18269558226339808350
21421861 104 17750502985271953402
22122407 14 15430327897065223269
221357 26 18131628967532776153
23175994 123 17275108344395955280
23227448 37 18341048618053264060
23402539 116 18412538846827169727
23402655 69 18131068208529289652
23557571 272 18342746251538334052
23559900 14 18271526391151403446
3004659 81 18335707088557568278
335352 9 18410856568245613789
350125 39 18409452522194264837
351380 180 18342174479584923540
3545911 37 18341896294727416792
4028521 119 18341892969874116496
4073 2 18114749334839713034
4214541 1 18411419514305071984
495365 180 17346303926350983370
5104073 3 18335985259569948114
633830 44 18200025115004324501
69090 78 18343580754709273606
77779 3 18411982455700122788
9709674 26 18342463659786276182

>  <PUBCHEM_SHAPE_MULTIPOLES>
396.95
11.7
2.35
0.66
9.05
0.35
0
-3.96
0.51
-2.32
-0.07
0.24
-0.01
0.68

>  <PUBCHEM_SHAPE_SELFOVERLAP>
891.042

>  <PUBCHEM_SHAPE_VOLUME>
208.7

>  <RI>
-1.84892e+08

>  <Rbt.Current_Directory>
/root/miniconda3/envs/rdock/share/rxdock-2013.1.1_148c5bd1-0/data/ligands/prepped_ligands/Scutellarein

>  <Rbt.Executable>
rbdock/0.1.0

>  <Rbt.Library>
librxdock.so/0.1.0

>  <Rbt.Parameter_File>
/root/miniconda3/envs/rdock/share/rxdock-2013.1.1_148c5bd1-0/data/scripts/dock.prm

>  <Rbt.Receptor>
def.prm

>  <SCORE>
-15.7364

>  <SCORE.INTER>
-16.0392

>  <SCORE.INTER.CONST>
1

>  <SCORE.INTER.POLAR>
-1.80774

>  <SCORE.INTER.REPUL>
0.0300202

>  <SCORE.INTER.ROT>
1

>  <SCORE.INTER.VDW>
-16.443

>  <SCORE.INTER.norm>
-0.763771

>  <SCORE.INTRA>
1.36708

>  <SCORE.INTRA.DIHEDRAL>
0.44965

>  <SCORE.INTRA.DIHEDRAL.0>
1.23292

>  <SCORE.INTRA.POLAR>
0.210382

>  <SCORE.INTRA.POLAR.0>
-0.398136

>  <SCORE.INTRA.REPUL>
0

>  <SCORE.INTRA.REPUL.0>
0

>  <SCORE.INTRA.VDW>
0.426954

>  <SCORE.INTRA.VDW.0>
1.00302

>  <SCORE.INTRA.norm>
0.0650989

>  <SCORE.RESTR>
0

>  <SCORE.RESTR.CAVITY>
0

>  <SCORE.RESTR.norm>
0

>  <SCORE.SYSTEM>
-1.0643

>  <SCORE.SYSTEM.CONST>
0

>  <SCORE.SYSTEM.DIHEDRAL>
0.0521619

>  <SCORE.SYSTEM.VDW>
-1.09038

>  <SCORE.SYSTEM.norm>
-0.0506811

>  <SCORE.heavy>
21

>  <SCORE.norm>
-0.749354

$$$$
5281697
  RxDock  02242112133D
librxdock.so/0.1.0
 25 27  0  0  0  0  0  0  0  0999 V2000
  -52.5484   -3.7634   14.9347 O   0  0  0  0  0  0
  -53.0940   -8.1451   16.9213 O   0  0  0  0  0  0
  -55.7931   -7.9172   16.5876 O   0  0  0  0  0  0
  -56.8714   -5.6432   15.4429 O   0  0  0  0  0  0
  -50.7589   -7.0259   16.5939 O   0  0  0  0  0  0
  -48.4068    0.6889   13.2010 O   0  0  0  0  0  0
  -52.7659   -5.9648   15.9378 C   0  0  0  0  0  0
  -53.3127   -4.8200   15.3608 C   0  0  0  0  0  0
  -51.1728   -3.8370   15.0931 C   0  0  0  0  0  0
  -51.3064   -6.0504   16.0990 C   0  0  0  0  0  0
  -53.5931   -7.0110   16.3529 C   0  0  0  0  0  0
  -50.4474   -2.6506   14.5962 C   0  0  0  0  0  0
  -50.5286   -4.8868   15.6272 C   0  0  0  0  0  0
  -54.6939   -4.7145   15.1949 C   0  0  0  0  0  0
  -54.9743   -6.9026   16.1860 C   0  0  0  0  0  0
  -55.5236   -5.7571   15.6083 C   0  0  0  0  0  0
  -51.1407   -1.6235   13.9511 C   0  0  0  0  0  0
  -49.0650   -2.5497   14.7701 C   0  0  0  0  0  0
  -50.4556   -0.5024   13.4824 C   0  0  0  0  0  0
  -48.3799   -1.4286   14.3016 C   0  0  0  0  0  0
  -49.0752   -0.4050   13.6577 C   0  0  0  0  0  0
  -52.5017   -8.6052   16.3077 H   0  0  0  0  0  0
  -56.7150   -7.6148   16.5141 H   0  0  0  0  0  0
  -57.1094   -4.7023   15.5110 H   0  0  0  0  0  0
  -49.0285    1.2585   12.7163 H   0  0  0  0  0  0
  1  8  1  0  0  0
  1  9  1  0  0  0
  2 11  1  0  0  0
  2 22  1  0  0  0
  3 15  1  0  0  0
  3 23  1  0  0  0
  4 16  1  0  0  0
  4 24  1  0  0  0
  5 10  2  0  0  0
  6 21  1  0  0  0
  6 25  1  0  0  0
  7  8  2  0  0  0
  7 10  1  0  0  0
  7 11  1  0  0  0
  8 14  1  0  0  0
  9 12  1  0  0  0
  9 13  2  0  0  0
 10 13  1  0  0  0
 11 15  2  0  0  0
 12 17  2  0  0  0
 12 18  1  0  0  0
 14 16  2  0  0  0
 15 16  1  0  0  0
 17 19  1  0  0  0
 18 20  2  0  0  0
 19 21  2  0  0  0
 20 21  1  0  0  0
M  END
>  <CHROM.0>
-178.68771624,-177.76211947,66.25809202

>  <CHROM.1>
-61.14059004,171.85680642,-30.86946985,-4.84091305,-4.11303509,-52.15496314
-4.38241753,15.25120917,0.86651562,-0.07892526,-0.43760698

>  <Name>
5281697

>  <PUBCHEM_ATOM_DEF_STEREO_COUNT>
0

>  <PUBCHEM_ATOM_UDEF_STEREO_COUNT>
0

>  <PUBCHEM_BOND_DEF_STEREO_COUNT>
0

>  <PUBCHEM_BOND_UDEF_STEREO_COUNT>
0

>  <PUBCHEM_CACTVS_TAUTO_COUNT>
95

>  <PUBCHEM_COMPONENT_COUNT>
1

>  <PUBCHEM_COMPOUND_CID>
5281697

>  <PUBCHEM_CONFORMER_DIVERSEORDER>
1

>  <PUBCHEM_CONFORMER_ID>
005097A100000001

>  <PUBCHEM_CONFORMER_RMSD>
0.6

>  <PUBCHEM_COORDINATE_TYPE>
2
5
10

>  <PUBCHEM_EFFECTIVE_ROTOR_COUNT>
1

>  <PUBCHEM_FEATURE_SELFOVERLAP>
45.711

>  <PUBCHEM_HEAVY_ATOM_COUNT>
21

>  <PUBCHEM_ISOTOPIC_ATOM_COUNT>
0

>  <PUBCHEM_MMFF94_ENERGY>
63.223

>  <PUBCHEM_MMFF94_PARTIAL_CHARGES>
31
1 -0.16
10 0.47
11 0.08
12 0.03
13 -0.14
14 -0.15
15 0.08
16 0.08
17 -0.15
18 -0.15
19 -0.15
2 -0.53
20 -0.15
21 0.08
22 0.15
23 0.15
24 0.15
25 0.15
26 0.15
27 0.15
28 0.45
29 0.45
3 -0.53
30 0.45
31 0.45
4 -0.53
5 -0.57
6 -0.53
7 0.09
8 0.08
9 0.05

>  <PUBCHEM_PHARMACOPHORE_FEATURES>
9
1 1 acceptor
1 2 donor
1 3 donor
1 4 donor
1 5 acceptor
1 6 donor
6 1 7 8 9 10 13 rings
6 12 17 18 19 20 21 rings
6 7 8 11 14 15 16 rings

>  <PUBCHEM_SHAPE_FINGERPRINT>
10319926 262 18339625825081195930
10411042 1 17833271204996093459
10493431 412 18339369548524999705
10498660 4 18336542707697077949
10608611 8 18342173410280654128
10646746 165 18410573976930762244
11315181 36 17967813890389513380
11578080 2 13756702948478097673
11595378 159 17530951459133022432
12107183 9 17901657173352244522
12173636 292 18409726240512267175
12236239 1 17458623445659141570
12390115 104 18270976634926273329
12403259 415 18201996655522882608
12596602 18 16660369224522060160
12916748 109 18408890624269960579
13140716 1 17974859676664193147
13402501 40 18342737420969964016
13544592 145 18270128920288381310
14790565 3 17908994201191005865
15042514 8 18191873533892405547
15196674 1 18410856529976081566
15375358 24 18343866615200910982
18186145 218 18201727214817350440
200 152 16845855685150138058
20510252 161 18342459248711938305
20645477 56 18410293622761219728
20645477 70 17203057288073627646
21033648 29 18342165666017276744
21065198 57 18411699928693820962
21236236 1 18341332275253441647
21267235 1 18336835306807786307
21279426 13 18269558226339808350
21421861 104 17750502985271953402
22122407 14 15430327897065223269
221357 26 18131628967532776153
23175994 123 17275108344395955280
23227448 37 18341048618053264060
23402539 116 18412538846827169727
23402655 69 18131068208529289652
23557571 272 18342746251538334052
23559900 14 18271526391151403446
3004659 81 18335707088557568278
335352 9 18410856568245613789
350125 39 18409452522194264837
351380 180 18342174479584923540
3545911 37 18341896294727416792
4028521 119 18341892969874116496
4073 2 18114749334839713034
4214541 1 18411419514305071984
495365 180 17346303926350983370
5104073 3 18335985259569948114
633830 44 18200025115004324501
69090 78 18343580754709273606
77779 3 18411982455700122788
9709674 26 18342463659786276182

>  <PUBCHEM_SHAPE_MULTIPOLES>
396.95
11.7
2.35
0.66
9.05
0.35
0
-3.96
0.51
-2.32
-0.07
0.24
-0.01
0.68

>  <PUBCHEM_SHAPE_SELFOVERLAP>
891.042

>  <PUBCHEM_SHAPE_VOLUME>
208.7

>  <RI>
-1.84892e+08

>  <Rbt.Current_Directory>
/root/miniconda3/envs/rdock/share/rxdock-2013.1.1_148c5bd1-0/data/ligands/prepped_ligands/Scutellarein

>  <Rbt.Executable>
rbdock/0.1.0

>  <Rbt.Library>
librxdock.so/0.1.0

>  <Rbt.Parameter_File>
/root/miniconda3/envs/rdock/share/rxdock-2013.1.1_148c5bd1-0/data/scripts/dock.prm

>  <Rbt.Receptor>
def.prm

>  <SCORE>
-13.8759

>  <SCORE.INTER>
-15.7651

>  <SCORE.INTER.CONST>
1

>  <SCORE.INTER.POLAR>
-1.2398

>  <SCORE.INTER.REPUL>
0.0358772

>  <SCORE.INTER.ROT>
1

>  <SCORE.INTER.VDW>
-18.1292

>  <SCORE.INTER.norm>
-0.750721

>  <SCORE.INTRA>
2.87029

>  <SCORE.INTRA.DIHEDRAL>
3.87519

>  <SCORE.INTRA.DIHEDRAL.0>
1.23292

>  <SCORE.INTRA.POLAR>
0.258747

>  <SCORE.INTRA.POLAR.0>
-0.398136

>  <SCORE.INTRA.REPUL>
0

>  <SCORE.INTRA.REPUL.0>
0

>  <SCORE.INTRA.VDW>
0.0529489

>  <SCORE.INTRA.VDW.0>
1.00302

>  <SCORE.INTRA.norm>
0.13668

>  <SCORE.RESTR>
0

>  <SCORE.RESTR.CAVITY>
0

>  <SCORE.RESTR.norm>
0

>  <SCORE.SYSTEM>
-0.98102

>  <SCORE.SYSTEM.CONST>
0

>  <SCORE.SYSTEM.DIHEDRAL>
0.118917

>  <SCORE.SYSTEM.POLAR>
-0.0128096

>  <SCORE.SYSTEM.VDW>
-0.996925

>  <SCORE.SYSTEM.norm>
-0.0467152

>  <SCORE.heavy>
21

>  <SCORE.norm>
-0.660756

$$$$
5281697
  RxDock  02242112143D
librxdock.so/0.1.0
 25 27  0  0  0  0  0  0  0  0999 V2000
  -51.3484   -4.1768   15.0347 O   0  0  0  0  0  0
  -46.8295   -3.9961   16.7639 O   0  0  0  0  0  0
  -46.2399   -2.0787   14.9134 O   0  0  0  0  0  0
  -48.1726   -1.2116   13.1368 O   0  0  0  0  0  0
  -48.6509   -5.5896   17.7415 O   0  0  0  0  0  0
  -57.0371   -6.8788   15.6053 O   0  0  0  0  0  0
  -49.0951   -4.1262   15.9400 C   0  0  0  0  0  0
  -50.0672   -3.6867   15.0431 C   0  0  0  0  0  0
  -51.6864   -5.1578   15.9547 C   0  0  0  0  0  0
  -49.4524   -5.1601   16.9234 C   0  0  0  0  0  0
  -47.8057   -3.5905   15.9031 C   0  0  0  0  0  0
  -53.0893   -5.6093   15.8622 C   0  0  0  0  0  0
  -50.8424   -5.6567   16.8719 C   0  0  0  0  0  0
  -49.7546   -2.7057   14.1017 C   0  0  0  0  0  0
  -47.4957   -2.6097   14.9601 C   0  0  0  0  0  0
  -48.4678   -2.1682   14.0613 C   0  0  0  0  0  0
  -53.4215   -6.9329   16.1610 C   0  0  0  0  0  0
  -54.0904   -4.7145   15.4769 C   0  0  0  0  0  0
  -54.7469   -7.3593   16.0744 C   0  0  0  0  0  0
  -55.4158   -5.1407   15.3906 C   0  0  0  0  0  0
  -55.7440   -6.4632   15.6892 C   0  0  0  0  0  0
  -45.9998   -3.5271   16.5886 H   0  0  0  0  0  0
  -46.1226   -1.6437   14.0511 H   0  0  0  0  0  0
  -48.6797   -1.4010   12.3283 H   0  0  0  0  0  0
  -57.6037   -6.1104   15.4196 H   0  0  0  0  0  0
  1  8  1  0  0  0
  1  9  1  0  0  0
  2 11  1  0  0  0
  2 22  1  0  0  0
  3 15  1  0  0  0
  3 23  1  0  0  0
  4 16  1  0  0  0
  4 24  1  0  0  0
  5 10  2  0  0  0
  6 21  1  0  0  0
  6 25  1  0  0  0
  7  8  2  0  0  0
  7 10  1  0  0  0
  7 11  1  0  0  0
  8 14  1  0  0  0
  9 12  1  0  0  0
  9 13  2  0  0  0
 10 13  1  0  0  0
 11 15  2  0  0  0
 12 17  2  0  0  0
 12 18  1  0  0  0
 14 16  2  0  0  0
 15 16  1  0  0  0
 17 19  1  0  0  0
 18 20  2  0  0  0
 19 21  2  0  0  0
 20 21  1  0  0  0
M  END
>  <CHROM.0>
-175.70356546,-59.89628316,-54.26296270

>  <CHROM.1>
179.36767084,162.21459461,-34.06727647,173.93936232,147.45000934,-50.85102291
-4.47944531,15.58229513,2.77798329,0.25826866,2.36564780

>  <Name>
5281697

>  <PUBCHEM_ATOM_DEF_STEREO_COUNT>
0

>  <PUBCHEM_ATOM_UDEF_STEREO_COUNT>
0

>  <PUBCHEM_BOND_DEF_STEREO_COUNT>
0

>  <PUBCHEM_BOND_UDEF_STEREO_COUNT>
0

>  <PUBCHEM_CACTVS_TAUTO_COUNT>
95

>  <PUBCHEM_COMPONENT_COUNT>
1

>  <PUBCHEM_COMPOUND_CID>
5281697

>  <PUBCHEM_CONFORMER_DIVERSEORDER>
1

>  <PUBCHEM_CONFORMER_ID>
005097A100000001

>  <PUBCHEM_CONFORMER_RMSD>
0.6

>  <PUBCHEM_COORDINATE_TYPE>
2
5
10

>  <PUBCHEM_EFFECTIVE_ROTOR_COUNT>
1

>  <PUBCHEM_FEATURE_SELFOVERLAP>
45.711

>  <PUBCHEM_HEAVY_ATOM_COUNT>
21

>  <PUBCHEM_ISOTOPIC_ATOM_COUNT>
0

>  <PUBCHEM_MMFF94_ENERGY>
63.223

>  <PUBCHEM_MMFF94_PARTIAL_CHARGES>
31
1 -0.16
10 0.47
11 0.08
12 0.03
13 -0.14
14 -0.15
15 0.08
16 0.08
17 -0.15
18 -0.15
19 -0.15
2 -0.53
20 -0.15
21 0.08
22 0.15
23 0.15
24 0.15
25 0.15
26 0.15
27 0.15
28 0.45
29 0.45
3 -0.53
30 0.45
31 0.45
4 -0.53
5 -0.57
6 -0.53
7 0.09
8 0.08
9 0.05

>  <PUBCHEM_PHARMACOPHORE_FEATURES>
9
1 1 acceptor
1 2 donor
1 3 donor
1 4 donor
1 5 acceptor
1 6 donor
6 1 7 8 9 10 13 rings
6 12 17 18 19 20 21 rings
6 7 8 11 14 15 16 rings

>  <PUBCHEM_SHAPE_FINGERPRINT>
10319926 262 18339625825081195930
10411042 1 17833271204996093459
10493431 412 18339369548524999705
10498660 4 18336542707697077949
10608611 8 18342173410280654128
10646746 165 18410573976930762244
11315181 36 17967813890389513380
11578080 2 13756702948478097673
11595378 159 17530951459133022432
12107183 9 17901657173352244522
12173636 292 18409726240512267175
12236239 1 17458623445659141570
12390115 104 18270976634926273329
12403259 415 18201996655522882608
12596602 18 16660369224522060160
12916748 109 18408890624269960579
13140716 1 17974859676664193147
13402501 40 18342737420969964016
13544592 145 18270128920288381310
14790565 3 17908994201191005865
15042514 8 18191873533892405547
15196674 1 18410856529976081566
15375358 24 18343866615200910982
18186145 218 18201727214817350440
200 152 16845855685150138058
20510252 161 18342459248711938305
20645477 56 18410293622761219728
20645477 70 17203057288073627646
21033648 29 18342165666017276744
21065198 57 18411699928693820962
21236236 1 18341332275253441647
21267235 1 18336835306807786307
21279426 13 18269558226339808350
21421861 104 17750502985271953402
22122407 14 15430327897065223269
221357 26 18131628967532776153
23175994 123 17275108344395955280
23227448 37 18341048618053264060
23402539 116 18412538846827169727
23402655 69 18131068208529289652
23557571 272 18342746251538334052
23559900 14 18271526391151403446
3004659 81 18335707088557568278
335352 9 18410856568245613789
350125 39 18409452522194264837
351380 180 18342174479584923540
3545911 37 18341896294727416792
4028521 119 18341892969874116496
4073 2 18114749334839713034
4214541 1 18411419514305071984
495365 180 17346303926350983370
5104073 3 18335985259569948114
633830 44 18200025115004324501
69090 78 18343580754709273606
77779 3 18411982455700122788
9709674 26 18342463659786276182

>  <PUBCHEM_SHAPE_MULTIPOLES>
396.95
11.7
2.35
0.66
9.05
0.35
0
-3.96
0.51
-2.32
-0.07
0.24
-0.01
0.68

>  <PUBCHEM_SHAPE_SELFOVERLAP>
891.042

>  <PUBCHEM_SHAPE_VOLUME>
208.7

>  <RI>
-1.84892e+08

>  <Rbt.Current_Directory>
/root/miniconda3/envs/rdock/share/rxdock-2013.1.1_148c5bd1-0/data/ligands/prepped_ligands/Scutellarein

>  <Rbt.Executable>
rbdock/0.1.0

>  <Rbt.Library>
librxdock.so/0.1.0

>  <Rbt.Parameter_File>
/root/miniconda3/envs/rdock/share/rxdock-2013.1.1_148c5bd1-0/data/scripts/dock.prm

>  <Rbt.Receptor>
def.prm

>  <SCORE>
-16.7701

>  <SCORE.INTER>
-17.2211

>  <SCORE.INTER.CONST>
1

>  <SCORE.INTER.POLAR>
-1.84504

>  <SCORE.INTER.REPUL>
0

>  <SCORE.INTER.ROT>
1

>  <SCORE.INTER.VDW>
-17.3479

>  <SCORE.INTER.norm>
-0.820052

>  <SCORE.INTRA>
1.42708

>  <SCORE.INTRA.DIHEDRAL>
2.20524

>  <SCORE.INTRA.DIHEDRAL.0>
1.23292

>  <SCORE.INTRA.POLAR>
0.149732

>  <SCORE.INTRA.POLAR.0>
-0.398136

>  <SCORE.INTRA.REPUL>
0

>  <SCORE.INTRA.REPUL.0>
0

>  <SCORE.INTRA.VDW>
-0.184633

>  <SCORE.INTRA.VDW.0>
1.00302

>  <SCORE.INTRA.norm>
0.067956

>  <SCORE.RESTR>
0.000635271

>  <SCORE.RESTR.CAVITY>
0.000635271

>  <SCORE.RESTR.norm>
3.0251e-05

>  <SCORE.SYSTEM>
-0.976713

>  <SCORE.SYSTEM.CONST>
0

>  <SCORE.SYSTEM.DIHEDRAL>
0.118446

>  <SCORE.SYSTEM.POLAR>
-0.0126325

>  <SCORE.SYSTEM.VDW>
-0.992986

>  <SCORE.SYSTEM.norm>
-0.0465101

>  <SCORE.heavy>
21

>  <SCORE.norm>
-0.798576

$$$$
5281697
  RxDock  02242112143D
librxdock.so/0.1.0
 25 27  0  0  0  0  0  0  0  0999 V2000
  -52.6124   -4.5735   15.0622 O   0  0  0  0  0  0
  -52.5793   -8.4787   17.9243 O   0  0  0  0  0  0
  -54.7166   -9.4622   16.5412 O   0  0  0  0  0  0
  -55.8005   -8.0276   14.4409 O   0  0  0  0  0  0
  -50.8659   -6.5268   18.1821 O   0  0  0  0  0  0
  -49.8293    0.9528   13.7608 O   0  0  0  0  0  0
  -52.5515   -6.5109   16.5260 C   0  0  0  0  0  0
  -53.1000   -5.7904   15.4665 C   0  0  0  0  0  0
  -51.5313   -4.0356   15.7440 C   0  0  0  0  0  0
  -51.3989   -5.9478   17.2457 C   0  0  0  0  0  0
  -53.0891   -7.7465   16.8936 C   0  0  0  0  0  0
  -51.0843   -2.7280   15.2237 C   0  0  0  0  0  0
  -50.9132   -4.6351   16.7740 C   0  0  0  0  0  0
  -54.1924   -6.3030   14.7663 C   0  0  0  0  0  0
  -54.1821   -8.2567   16.1918 C   0  0  0  0  0  0
  -54.7325   -7.5367   15.1305 C   0  0  0  0  0  0
  -51.4290   -2.3331   13.9287 C   0  0  0  0  0  0
  -50.3159   -1.8797   16.0245 C   0  0  0  0  0  0
  -51.0074   -1.0974   13.4374 C   0  0  0  0  0  0
  -49.8945   -0.6440   15.5333 C   0  0  0  0  0  0
  -50.2402   -0.2529   14.2397 C   0  0  0  0  0  0
  -51.8280   -8.0221   18.3318 H   0  0  0  0  0  0
  -55.3950   -9.6988   15.8850 H   0  0  0  0  0  0
  -56.0507   -7.3776   13.7615 H   0  0  0  0  0  0
  -50.2140    1.0889   12.8779 H   0  0  0  0  0  0
  1  8  1  0  0  0
  1  9  1  0  0  0
  2 11  1  0  0  0
  2 22  1  0  0  0
  3 15  1  0  0  0
  3 23  1  0  0  0
  4 16  1  0  0  0
  4 24  1  0  0  0
  5 10  2  0  0  0
  6 21  1  0  0  0
  6 25  1  0  0  0
  7  8  2  0  0  0
  7 10  1  0  0  0
  7 11  1  0  0  0
  8 14  1  0  0  0
  9 12  1  0  0  0
  9 13  2  0  0  0
 10 13  1  0  0  0
 11 15  2  0  0  0
 12 17  2  0  0  0
 12 18  1  0  0  0
 14 16  2  0  0  0
 15 16  1  0  0  0
 17 19  1  0  0  0
 18 20  2  0  0  0
 19 21  2  0  0  0
 20 21  1  0  0  0
M  END
>  <CHROM.0>
-61.67792800,63.01658056,-178.69532381

>  <CHROM.1>
0.04905699,-173.58941845,-1.40637798,4.25301793,-19.99805763,-52.23636670
-4.91949755,15.67603345,0.97022957,-0.70539618,-0.65693682

>  <Name>
5281697

>  <PUBCHEM_ATOM_DEF_STEREO_COUNT>
0

>  <PUBCHEM_ATOM_UDEF_STEREO_COUNT>
0

>  <PUBCHEM_BOND_DEF_STEREO_COUNT>
0

>  <PUBCHEM_BOND_UDEF_STEREO_COUNT>
0

>  <PUBCHEM_CACTVS_TAUTO_COUNT>
95

>  <PUBCHEM_COMPONENT_COUNT>
1

>  <PUBCHEM_COMPOUND_CID>
5281697

>  <PUBCHEM_CONFORMER_DIVERSEORDER>
1

>  <PUBCHEM_CONFORMER_ID>
005097A100000001

>  <PUBCHEM_CONFORMER_RMSD>
0.6

>  <PUBCHEM_COORDINATE_TYPE>
2
5
10

>  <PUBCHEM_EFFECTIVE_ROTOR_COUNT>
1

>  <PUBCHEM_FEATURE_SELFOVERLAP>
45.711

>  <PUBCHEM_HEAVY_ATOM_COUNT>
21

>  <PUBCHEM_ISOTOPIC_ATOM_COUNT>
0

>  <PUBCHEM_MMFF94_ENERGY>
63.223

>  <PUBCHEM_MMFF94_PARTIAL_CHARGES>
31
1 -0.16
10 0.47
11 0.08
12 0.03
13 -0.14
14 -0.15
15 0.08
16 0.08
17 -0.15
18 -0.15
19 -0.15
2 -0.53
20 -0.15
21 0.08
22 0.15
23 0.15
24 0.15
25 0.15
26 0.15
27 0.15
28 0.45
29 0.45
3 -0.53
30 0.45
31 0.45
4 -0.53
5 -0.57
6 -0.53
7 0.09
8 0.08
9 0.05

>  <PUBCHEM_PHARMACOPHORE_FEATURES>
9
1 1 acceptor
1 2 donor
1 3 donor
1 4 donor
1 5 acceptor
1 6 donor
6 1 7 8 9 10 13 rings
6 12 17 18 19 20 21 rings
6 7 8 11 14 15 16 rings

>  <PUBCHEM_SHAPE_FINGERPRINT>
10319926 262 18339625825081195930
10411042 1 17833271204996093459
10493431 412 18339369548524999705
10498660 4 18336542707697077949
10608611 8 18342173410280654128
10646746 165 18410573976930762244
11315181 36 17967813890389513380
11578080 2 13756702948478097673
11595378 159 17530951459133022432
12107183 9 17901657173352244522
12173636 292 18409726240512267175
12236239 1 17458623445659141570
12390115 104 18270976634926273329
12403259 415 18201996655522882608
12596602 18 16660369224522060160
12916748 109 18408890624269960579
13140716 1 17974859676664193147
13402501 40 18342737420969964016
13544592 145 18270128920288381310
14790565 3 17908994201191005865
15042514 8 18191873533892405547
15196674 1 18410856529976081566
15375358 24 18343866615200910982
18186145 218 18201727214817350440
200 152 16845855685150138058
20510252 161 18342459248711938305
20645477 56 18410293622761219728
20645477 70 17203057288073627646
21033648 29 18342165666017276744
21065198 57 18411699928693820962
21236236 1 18341332275253441647
21267235 1 18336835306807786307
21279426 13 18269558226339808350
21421861 104 17750502985271953402
22122407 14 15430327897065223269
221357 26 18131628967532776153
23175994 123 17275108344395955280
23227448 37 18341048618053264060
23402539 116 18412538846827169727
23402655 69 18131068208529289652
23557571 272 18342746251538334052
23559900 14 18271526391151403446
3004659 81 18335707088557568278
335352 9 18410856568245613789
350125 39 18409452522194264837
351380 180 18342174479584923540
3545911 37 18341896294727416792
4028521 119 18341892969874116496
4073 2 18114749334839713034
4214541 1 18411419514305071984
495365 180 17346303926350983370
5104073 3 18335985259569948114
633830 44 18200025115004324501
69090 78 18343580754709273606
77779 3 18411982455700122788
9709674 26 18342463659786276182

>  <PUBCHEM_SHAPE_MULTIPOLES>
396.95
11.7
2.35
0.66
9.05
0.35
0
-3.96
0.51
-2.32
-0.07
0.24
-0.01
0.68

>  <PUBCHEM_SHAPE_SELFOVERLAP>
891.042

>  <PUBCHEM_SHAPE_VOLUME>
208.7

>  <RI>
-1.84892e+08

>  <Rbt.Current_Directory>
/root/miniconda3/envs/rdock/share/rxdock-2013.1.1_148c5bd1-0/data/ligands/prepped_ligands/Scutellarein

>  <Rbt.Executable>
rbdock/0.1.0

>  <Rbt.Library>
librxdock.so/0.1.0

>  <Rbt.Parameter_File>
/root/miniconda3/envs/rdock/share/rxdock-2013.1.1_148c5bd1-0/data/scripts/dock.prm

>  <Rbt.Receptor>
def.prm

>  <SCORE>
-15.6503

>  <SCORE.INTER>
-15.6568

>  <SCORE.INTER.CONST>
1

>  <SCORE.INTER.POLAR>
-0.938083

>  <SCORE.INTER.REPUL>
0

>  <SCORE.INTER.ROT>
1

>  <SCORE.INTER.VDW>
-18.8673

>  <SCORE.INTER.norm>
-0.745561

>  <SCORE.INTRA>
1.05427

>  <SCORE.INTRA.DIHEDRAL>
-0.554218

>  <SCORE.INTRA.DIHEDRAL.0>
1.23292

>  <SCORE.INTRA.POLAR>
0.2215

>  <SCORE.INTRA.POLAR.0>
-0.398136

>  <SCORE.INTRA.REPUL>
0

>  <SCORE.INTRA.REPUL.0>
0

>  <SCORE.INTRA.VDW>
0.578276

>  <SCORE.INTRA.VDW.0>
1.00302

>  <SCORE.INTRA.norm>
0.0502032

>  <SCORE.RESTR>
0

>  <SCORE.RESTR.CAVITY>
0

>  <SCORE.RESTR.norm>
0

>  <SCORE.SYSTEM>
-1.04783

>  <SCORE.SYSTEM.CONST>
0

>  <SCORE.SYSTEM.DIHEDRAL>
0.0563287

>  <SCORE.SYSTEM.POLAR>
-0.00510589

>  <SCORE.SYSTEM.VDW>
-1.05863

>  <SCORE.SYSTEM.norm>
-0.0498965

>  <SCORE.heavy>
21

>  <SCORE.norm>
-0.745255

$$$$
5281697
  RxDock  02242112143D
librxdock.so/0.1.0
 25 27  0  0  0  0  0  0  0  0999 V2000
  -47.6059   -2.6440   16.5662 O   0  0  0  0  0  0
  -51.2940   -1.1062   13.8319 O   0  0  0  0  0  0
  -52.6184   -3.4283   14.3813 O   0  0  0  0  0  0
  -51.4612   -5.3458   16.0023 O   0  0  0  0  0  0
  -49.1320    0.3070   14.2078 O   0  0  0  0  0  0
  -41.8663   -1.2526   18.8263 O   0  0  0  0  0  0
  -49.4273   -1.8248   15.1838 C   0  0  0  0  0  0
  -48.8469   -2.7934   16.0009 C   0  0  0  0  0  0
  -46.8970   -1.4811   16.3057 C   0  0  0  0  0  0
  -48.6823   -0.5859   14.9126 C   0  0  0  0  0  0
  -50.6954   -2.0305   14.6354 C   0  0  0  0  0  0
  -45.5783   -1.4213   16.9674 C   0  0  0  0  0  0
  -47.3508   -0.4744   15.5420 C   0  0  0  0  0  0
  -49.5333   -3.9765   16.2752 C   0  0  0  0  0  0
  -51.3795   -3.2151   14.9111 C   0  0  0  0  0  0
  -50.7999   -4.1860   15.7292 C   0  0  0  0  0  0
  -44.8113   -2.5803   17.1093 C   0  0  0  0  0  0
  -45.0915   -0.2054   17.4532 C   0  0  0  0  0  0
  -43.5652   -2.5238   17.7337 C   0  0  0  0  0  0
  -43.8453   -0.1488   18.0774 C   0  0  0  0  0  0
  -43.0822   -1.3080   18.2177 C   0  0  0  0  0  0
  -50.8546   -0.2460   13.9107 H   0  0  0  0  0  0
  -52.8538   -2.6600   13.8326 H   0  0  0  0  0  0
  -50.8518   -5.9420   16.4712 H   0  0  0  0  0  0
  -41.3941   -2.0872   18.6637 H   0  0  0  0  0  0
  1  8  1  0  0  0
  1  9  1  0  0  0
  2 11  1  0  0  0
  2 22  1  0  0  0
  3 15  1  0  0  0
  3 23  1  0  0  0
  4 16  1  0  0  0
  4 24  1  0  0  0
  5 10  2  0  0  0
  6 21  1  0  0  0
  6 25  1  0  0  0
  7  8  2  0  0  0
  7 10  1  0  0  0
  7 11  1  0  0  0
  8 14  1  0  0  0
  9 12  1  0  0  0
  9 13  2  0  0  0
 10 13  1  0  0  0
 11 15  2  0  0  0
 12 17  2  0  0  0
 12 18  1  0  0  0
 14 16  2  0  0  0
 15 16  1  0  0  0
 17 19  1  0  0  0
 18 20  2  0  0  0
 19 21  2  0  0  0
 20 21  1  0  0  0
M  END
>  <CHROM.0>
175.89014140,-63.38457863,-59.46432781

>  <CHROM.1>
-15.89780733,0.85690534,-8.20097702,12.47961254,36.12402739,-47.86249852
-2.03290347,16.10786234,-0.03919054,0.42963880,2.72426545

>  <Name>
5281697

>  <PUBCHEM_ATOM_DEF_STEREO_COUNT>
0

>  <PUBCHEM_ATOM_UDEF_STEREO_COUNT>
0

>  <PUBCHEM_BOND_DEF_STEREO_COUNT>
0

>  <PUBCHEM_BOND_UDEF_STEREO_COUNT>
0

>  <PUBCHEM_CACTVS_TAUTO_COUNT>
95

>  <PUBCHEM_COMPONENT_COUNT>
1

>  <PUBCHEM_COMPOUND_CID>
5281697

>  <PUBCHEM_CONFORMER_DIVERSEORDER>
1

>  <PUBCHEM_CONFORMER_ID>
005097A100000001

>  <PUBCHEM_CONFORMER_RMSD>
0.6

>  <PUBCHEM_COORDINATE_TYPE>
2
5
10

>  <PUBCHEM_EFFECTIVE_ROTOR_COUNT>
1

>  <PUBCHEM_FEATURE_SELFOVERLAP>
45.711

>  <PUBCHEM_HEAVY_ATOM_COUNT>
21

>  <PUBCHEM_ISOTOPIC_ATOM_COUNT>
0

>  <PUBCHEM_MMFF94_ENERGY>
63.223

>  <PUBCHEM_MMFF94_PARTIAL_CHARGES>
31
1 -0.16
10 0.47
11 0.08
12 0.03
13 -0.14
14 -0.15
15 0.08
16 0.08
17 -0.15
18 -0.15
19 -0.15
2 -0.53
20 -0.15
21 0.08
22 0.15
23 0.15
24 0.15
25 0.15
26 0.15
27 0.15
28 0.45
29 0.45
3 -0.53
30 0.45
31 0.45
4 -0.53
5 -0.57
6 -0.53
7 0.09
8 0.08
9 0.05

>  <PUBCHEM_PHARMACOPHORE_FEATURES>
9
1 1 acceptor
1 2 donor
1 3 donor
1 4 donor
1 5 acceptor
1 6 donor
6 1 7 8 9 10 13 rings
6 12 17 18 19 20 21 rings
6 7 8 11 14 15 16 rings

>  <PUBCHEM_SHAPE_FINGERPRINT>
10319926 262 18339625825081195930
10411042 1 17833271204996093459
10493431 412 18339369548524999705
10498660 4 18336542707697077949
10608611 8 18342173410280654128
10646746 165 18410573976930762244
11315181 36 17967813890389513380
11578080 2 13756702948478097673
11595378 159 17530951459133022432
12107183 9 17901657173352244522
12173636 292 18409726240512267175
12236239 1 17458623445659141570
12390115 104 18270976634926273329
12403259 415 18201996655522882608
12596602 18 16660369224522060160
12916748 109 18408890624269960579
13140716 1 17974859676664193147
13402501 40 18342737420969964016
13544592 145 18270128920288381310
14790565 3 17908994201191005865
15042514 8 18191873533892405547
15196674 1 18410856529976081566
15375358 24 18343866615200910982
18186145 218 18201727214817350440
200 152 16845855685150138058
20510252 161 18342459248711938305
20645477 56 18410293622761219728
20645477 70 17203057288073627646
21033648 29 18342165666017276744
21065198 57 18411699928693820962
21236236 1 18341332275253441647
21267235 1 18336835306807786307
21279426 13 18269558226339808350
21421861 104 17750502985271953402
22122407 14 15430327897065223269
221357 26 18131628967532776153
23175994 123 17275108344395955280
23227448 37 18341048618053264060
23402539 116 18412538846827169727
23402655 69 18131068208529289652
23557571 272 18342746251538334052
23559900 14 18271526391151403446
3004659 81 18335707088557568278
335352 9 18410856568245613789
350125 39 18409452522194264837
351380 180 18342174479584923540
3545911 37 18341896294727416792
4028521 119 18341892969874116496
4073 2 18114749334839713034
4214541 1 18411419514305071984
495365 180 17346303926350983370
5104073 3 18335985259569948114
633830 44 18200025115004324501
69090 78 18343580754709273606
77779 3 18411982455700122788
9709674 26 18342463659786276182

>  <PUBCHEM_SHAPE_MULTIPOLES>
396.95
11.7
2.35
0.66
9.05
0.35
0
-3.96
0.51
-2.32
-0.07
0.24
-0.01
0.68

>  <PUBCHEM_SHAPE_SELFOVERLAP>
891.042

>  <PUBCHEM_SHAPE_VOLUME>
208.7

>  <RI>
-1.84892e+08

>  <Rbt.Current_Directory>
/root/miniconda3/envs/rdock/share/rxdock-2013.1.1_148c5bd1-0/data/ligands/prepped_ligands/Scutellarein

>  <Rbt.Executable>
rbdock/0.1.0

>  <Rbt.Library>
librxdock.so/0.1.0

>  <Rbt.Parameter_File>
/root/miniconda3/envs/rdock/share/rxdock-2013.1.1_148c5bd1-0/data/scripts/dock.prm

>  <Rbt.Receptor>
def.prm

>  <SCORE>
-15.7487

>  <SCORE.INTER>
-15.9441

>  <SCORE.INTER.CONST>
1

>  <SCORE.INTER.POLAR>
-1.87528

>  <SCORE.INTER.REPUL>
0.033279

>  <SCORE.INTER.ROT>
1

>  <SCORE.INTER.VDW>
-16.1345

>  <SCORE.INTER.norm>
-0.759241

>  <SCORE.INTRA>
1.22682

>  <SCORE.INTRA.DIHEDRAL>
1.07867

>  <SCORE.INTRA.DIHEDRAL.0>
1.23292

>  <SCORE.INTRA.POLAR>
0.181556

>  <SCORE.INTRA.POLAR.0>
-0.398136

>  <SCORE.INTRA.REPUL>
0

>  <SCORE.INTRA.REPUL.0>
0

>  <SCORE.INTRA.VDW>
0.0701957

>  <SCORE.INTRA.VDW.0>
1.00302

>  <SCORE.INTRA.norm>
0.0584202

>  <SCORE.RESTR>
0

>  <SCORE.RESTR.CAVITY>
0

>  <SCORE.RESTR.norm>
0

>  <SCORE.SYSTEM>
-1.03144

>  <SCORE.SYSTEM.CONST>
0

>  <SCORE.SYSTEM.DIHEDRAL>
0.101383

>  <SCORE.SYSTEM.POLAR>
-0.00214249

>  <SCORE.SYSTEM.VDW>
-1.07484

>  <SCORE.SYSTEM.norm>
-0.0491161

>  <SCORE.heavy>
21

>  <SCORE.norm>
-0.749937

$$$$
5281697
  RxDock  02242112143D
librxdock.so/0.1.0
 25 27  0  0  0  0  0  0  0  0999 V2000
  -51.4581   -2.8216   14.5283 O   0  0  0  0  0  0
  -46.7792   -1.5763   14.5357 O   0  0  0  0  0  0
  -47.4238    0.7024   13.1793 O   0  0  0  0  0  0
  -50.0516    1.2254   12.4976 O   0  0  0  0  0  0
  -47.6542   -3.7787   15.6296 O   0  0  0  0  0  0
  -55.6940   -7.1619   16.3179 O   0  0  0  0  0  0
  -49.0989   -2.2447   14.5600 C   0  0  0  0  0  0
  -50.4227   -1.9779   14.2152 C   0  0  0  0  0  0
  -51.1715   -3.9939   15.2111 C   0  0  0  0  0  0
  -48.7922   -3.4829   15.2925 C   0  0  0  0  0  0
  -48.0845   -1.3484   14.2156 C   0  0  0  0  0  0
  -52.3575   -4.8241   15.5020 C   0  0  0  0  0  0
  -49.9403   -4.3583   15.6035 C   0  0  0  0  0  0
  -50.7406   -0.8096   13.5220 C   0  0  0  0  0  0
  -48.4054   -0.1809   13.5219 C   0  0  0  0  0  0
  -49.7304    0.0880   13.1759 C   0  0  0  0  0  0
  -53.5949   -4.5013   14.9396 C   0  0  0  0  0  0
  -52.2470   -5.9364   16.3398 C   0  0  0  0  0  0
  -54.7153   -5.2860   15.2138 C   0  0  0  0  0  0
  -53.3672   -6.7212   16.6138 C   0  0  0  0  0  0
  -54.6013   -6.3959   16.0508 C   0  0  0  0  0  0
  -46.2077   -1.4433   13.7645 H   0  0  0  0  0  0
  -46.6823    0.2032   12.7949 H   0  0  0  0  0  0
  -49.2558    1.5408   12.0351 H   0  0  0  0  0  0
  -56.4730   -6.7562   15.9001 H   0  0  0  0  0  0
  1  8  1  0  0  0
  1  9  1  0  0  0
  2 11  1  0  0  0
  2 22  1  0  0  0
  3 15  1  0  0  0
  3 23  1  0  0  0
  4 16  1  0  0  0
  4 24  1  0  0  0
  5 10  2  0  0  0
  6 21  1  0  0  0
  6 25  1  0  0  0
  7  8  2  0  0  0
  7 10  1  0  0  0
  7 11  1  0  0  0
  8 14  1  0  0  0
  9 12  1  0  0  0
  9 13  2  0  0  0
 10 13  1  0  0  0
 11 15  2  0  0  0
 12 17  2  0  0  0
 12 18  1  0  0  0
 14 16  2  0  0  0
 15 16  1  0  0  0
 17 19  1  0  0  0
 18 20  2  0  0  0
 19 21  2  0  0  0
 20 21  1  0  0  0
M  END
>  <CHROM.0>
54.95400646,178.94079230,178.30535218

>  <CHROM.1>
131.42831868,46.41922848,-157.54186758,-4.12467135,8.86068627,-50.71873554
-3.05041608,14.76045888,2.32940520,0.13911469,2.62174508

>  <Name>
5281697

>  <PUBCHEM_ATOM_DEF_STEREO_COUNT>
0

>  <PUBCHEM_ATOM_UDEF_STEREO_COUNT>
0

>  <PUBCHEM_BOND_DEF_STEREO_COUNT>
0

>  <PUBCHEM_BOND_UDEF_STEREO_COUNT>
0

>  <PUBCHEM_CACTVS_TAUTO_COUNT>
95

>  <PUBCHEM_COMPONENT_COUNT>
1

>  <PUBCHEM_COMPOUND_CID>
5281697

>  <PUBCHEM_CONFORMER_DIVERSEORDER>
1

>  <PUBCHEM_CONFORMER_ID>
005097A100000001

>  <PUBCHEM_CONFORMER_RMSD>
0.6

>  <PUBCHEM_COORDINATE_TYPE>
2
5
10

>  <PUBCHEM_EFFECTIVE_ROTOR_COUNT>
1

>  <PUBCHEM_FEATURE_SELFOVERLAP>
45.711

>  <PUBCHEM_HEAVY_ATOM_COUNT>
21

>  <PUBCHEM_ISOTOPIC_ATOM_COUNT>
0

>  <PUBCHEM_MMFF94_ENERGY>
63.223

>  <PUBCHEM_MMFF94_PARTIAL_CHARGES>
31
1 -0.16
10 0.47
11 0.08
12 0.03
13 -0.14
14 -0.15
15 0.08
16 0.08
17 -0.15
18 -0.15
19 -0.15
2 -0.53
20 -0.15
21 0.08
22 0.15
23 0.15
24 0.15
25 0.15
26 0.15
27 0.15
28 0.45
29 0.45
3 -0.53
30 0.45
31 0.45
4 -0.53
5 -0.57
6 -0.53
7 0.09
8 0.08
9 0.05

>  <PUBCHEM_PHARMACOPHORE_FEATURES>
9
1 1 acceptor
1 2 donor
1 3 donor
1 4 donor
1 5 acceptor
1 6 donor
6 1 7 8 9 10 13 rings
6 12 17 18 19 20 21 rings
6 7 8 11 14 15 16 rings

>  <PUBCHEM_SHAPE_FINGERPRINT>
10319926 262 18339625825081195930
10411042 1 17833271204996093459
10493431 412 18339369548524999705
10498660 4 18336542707697077949
10608611 8 18342173410280654128
10646746 165 18410573976930762244
11315181 36 17967813890389513380
11578080 2 13756702948478097673
11595378 159 17530951459133022432
12107183 9 17901657173352244522
12173636 292 18409726240512267175
12236239 1 17458623445659141570
12390115 104 18270976634926273329
12403259 415 18201996655522882608
12596602 18 16660369224522060160
12916748 109 18408890624269960579
13140716 1 17974859676664193147
13402501 40 18342737420969964016
13544592 145 18270128920288381310
14790565 3 17908994201191005865
15042514 8 18191873533892405547
15196674 1 18410856529976081566
15375358 24 18343866615200910982
18186145 218 18201727214817350440
200 152 16845855685150138058
20510252 161 18342459248711938305
20645477 56 18410293622761219728
20645477 70 17203057288073627646
21033648 29 18342165666017276744
21065198 57 18411699928693820962
21236236 1 18341332275253441647
21267235 1 18336835306807786307
21279426 13 18269558226339808350
21421861 104 17750502985271953402
22122407 14 15430327897065223269
221357 26 18131628967532776153
23175994 123 17275108344395955280
23227448 37 18341048618053264060
23402539 116 18412538846827169727
23402655 69 18131068208529289652
23557571 272 18342746251538334052
23559900 14 18271526391151403446
3004659 81 18335707088557568278
335352 9 18410856568245613789
350125 39 18409452522194264837
351380 180 18342174479584923540
3545911 37 18341896294727416792
4028521 119 18341892969874116496
4073 2 18114749334839713034
4214541 1 18411419514305071984
495365 180 17346303926350983370
5104073 3 18335985259569948114
633830 44 18200025115004324501
69090 78 18343580754709273606
77779 3 18411982455700122788
9709674 26 18342463659786276182

>  <PUBCHEM_SHAPE_MULTIPOLES>
396.95
11.7
2.35
0.66
9.05
0.35
0
-3.96
0.51
-2.32
-0.07
0.24
-0.01
0.68

>  <PUBCHEM_SHAPE_SELFOVERLAP>
891.042

>  <PUBCHEM_SHAPE_VOLUME>
208.7

>  <RI>
-1.84892e+08

>  <Rbt.Current_Directory>
/root/miniconda3/envs/rdock/share/rxdock-2013.1.1_148c5bd1-0/data/ligands/prepped_ligands/Scutellarein

>  <Rbt.Executable>
rbdock/0.1.0

>  <Rbt.Library>
librxdock.so/0.1.0

>  <Rbt.Parameter_File>
/root/miniconda3/envs/rdock/share/rxdock-2013.1.1_148c5bd1-0/data/scripts/dock.prm

>  <Rbt.Receptor>
def.prm

>  <SCORE>
-18.0454

>  <SCORE.INTER>
-20.5434

>  <SCORE.INTER.CONST>
1

>  <SCORE.INTER.POLAR>
-2.55014

>  <SCORE.INTER.REPUL>
0.280151

>  <SCORE.INTER.ROT>
1

>  <SCORE.INTER.VDW>
-19.6736

>  <SCORE.INTER.norm>
-0.978255

>  <SCORE.INTRA>
3.53791

>  <SCORE.INTRA.DIHEDRAL>
4.80856

>  <SCORE.INTRA.DIHEDRAL.0>
1.23292

>  <SCORE.INTRA.POLAR>
0.357169

>  <SCORE.INTRA.POLAR.0>
-0.398136

>  <SCORE.INTRA.REPUL>
0

>  <SCORE.INTRA.REPUL.0>
0

>  <SCORE.INTRA.VDW>
-0.080741

>  <SCORE.INTRA.VDW.0>
1.00302

>  <SCORE.INTRA.norm>
0.168472

>  <SCORE.RESTR>
0

>  <SCORE.RESTR.CAVITY>
0

>  <SCORE.RESTR.norm>
0

>  <SCORE.SYSTEM>
-1.03998

>  <SCORE.SYSTEM.CONST>
0

>  <SCORE.SYSTEM.DIHEDRAL>
0.0803412

>  <SCORE.SYSTEM.VDW>
-1.08015

>  <SCORE.SYSTEM.norm>
-0.0495227

>  <SCORE.heavy>
21

>  <SCORE.norm>
-0.859306

$$$$
5281697
  RxDock  02242112143D
librxdock.so/0.1.0
 25 27  0  0  0  0  0  0  0  0999 V2000
  -50.4935   -1.1338   13.5394 O   0  0  0  0  0  0
  -49.0451   -5.1328   15.8531 O   0  0  0  0  0  0
  -51.6442   -5.9563   15.9752 O   0  0  0  0  0  0
  -53.6555   -4.3957   14.8967 O   0  0  0  0  0  0
  -47.3841   -3.2816   15.0616 O   0  0  0  0  0  0
  -48.6496    4.2814   10.8463 O   0  0  0  0  0  0
  -49.7134   -3.1215   14.6970 C   0  0  0  0  0  0
  -50.7296   -2.3373   14.1540 C   0  0  0  0  0  0
  -49.1868   -0.6762   13.4630 C   0  0  0  0  0  0
  -48.3250   -2.6438   14.6098 C   0  0  0  0  0  0
  -50.0125   -4.3399   15.3110 C   0  0  0  0  0  0
  -49.0455    0.6240   12.7776 C   0  0  0  0  0  0
  -48.1237   -1.3422   13.9413 C   0  0  0  0  0  0
  -52.0547   -2.7685   14.2219 C   0  0  0  0  0  0
  -51.3389   -4.7685   15.3778 C   0  0  0  0  0  0
  -52.3577   -3.9846   14.8345 C   0  0  0  0  0  0
  -47.9642    0.8528   11.9230 C   0  0  0  0  0  0
  -49.9929    1.6304   12.9797 C   0  0  0  0  0  0
  -47.8311    2.0809   11.2748 C   0  0  0  0  0  0
  -49.8600    2.8583   12.3314 C   0  0  0  0  0  0
  -48.7790    3.0835   11.4791 C   0  0  0  0  0  0
  -48.1638   -4.7737   15.6702 H   0  0  0  0  0  0
  -52.5996   -6.1125   15.8769 H   0  0  0  0  0  0
  -54.1485   -3.9614   14.1791 H   0  0  0  0  0  0
  -49.1726    4.9482   11.3237 H   0  0  0  0  0  0
  1  8  1  0  0  0
  1  9  1  0  0  0
  2 11  1  0  0  0
  2 22  1  0  0  0
  3 15  1  0  0  0
  3 23  1  0  0  0
  4 16  1  0  0  0
  4 24  1  0  0  0
  5 10  2  0  0  0
  6 21  1  0  0  0
  6 25  1  0  0  0
  7  8  2  0  0  0
  7 10  1  0  0  0
  7 11  1  0  0  0
  8 14  1  0  0  0
  9 12  1  0  0  0
  9 13  2  0  0  0
 10 13  1  0  0  0
 11 15  2  0  0  0
 12 17  2  0  0  0
 12 18  1  0  0  0
 14 16  2  0  0  0
 15 16  1  0  0  0
 17 19  1  0  0  0
 18 20  2  0  0  0
 19 21  2  0  0  0
 20 21  1  0  0  0
M  END
>  <CHROM.0>
-62.58617202,-63.81865735,63.40387305

>  <CHROM.1>
-5.51081657,-176.46644198,23.85770825,-159.62832632,-140.87942439,-49.85184198
-1.51946134,13.82136398,1.28782875,-0.04559865,-0.47393138

>  <Name>
5281697

>  <PUBCHEM_ATOM_DEF_STEREO_COUNT>
0

>  <PUBCHEM_ATOM_UDEF_STEREO_COUNT>
0

>  <PUBCHEM_BOND_DEF_STEREO_COUNT>
0

>  <PUBCHEM_BOND_UDEF_STEREO_COUNT>
0

>  <PUBCHEM_CACTVS_TAUTO_COUNT>
95

>  <PUBCHEM_COMPONENT_COUNT>
1

>  <PUBCHEM_COMPOUND_CID>
5281697

>  <PUBCHEM_CONFORMER_DIVERSEORDER>
1

>  <PUBCHEM_CONFORMER_ID>
005097A100000001

>  <PUBCHEM_CONFORMER_RMSD>
0.6

>  <PUBCHEM_COORDINATE_TYPE>
2
5
10

>  <PUBCHEM_EFFECTIVE_ROTOR_COUNT>
1

>  <PUBCHEM_FEATURE_SELFOVERLAP>
45.711

>  <PUBCHEM_HEAVY_ATOM_COUNT>
21

>  <PUBCHEM_ISOTOPIC_ATOM_COUNT>
0

>  <PUBCHEM_MMFF94_ENERGY>
63.223

>  <PUBCHEM_MMFF94_PARTIAL_CHARGES>
31
1 -0.16
10 0.47
11 0.08
12 0.03
13 -0.14
14 -0.15
15 0.08
16 0.08
17 -0.15
18 -0.15
19 -0.15
2 -0.53
20 -0.15
21 0.08
22 0.15
23 0.15
24 0.15
25 0.15
26 0.15
27 0.15
28 0.45
29 0.45
3 -0.53
30 0.45
31 0.45
4 -0.53
5 -0.57
6 -0.53
7 0.09
8 0.08
9 0.05

>  <PUBCHEM_PHARMACOPHORE_FEATURES>
9
1 1 acceptor
1 2 donor
1 3 donor
1 4 donor
1 5 acceptor
1 6 donor
6 1 7 8 9 10 13 rings
6 12 17 18 19 20 21 rings
6 7 8 11 14 15 16 rings

>  <PUBCHEM_SHAPE_FINGERPRINT>
10319926 262 18339625825081195930
10411042 1 17833271204996093459
10493431 412 18339369548524999705
10498660 4 18336542707697077949
10608611 8 18342173410280654128
10646746 165 18410573976930762244
11315181 36 17967813890389513380
11578080 2 13756702948478097673
11595378 159 17530951459133022432
12107183 9 17901657173352244522
12173636 292 18409726240512267175
12236239 1 17458623445659141570
12390115 104 18270976634926273329
12403259 415 18201996655522882608
12596602 18 16660369224522060160
12916748 109 18408890624269960579
13140716 1 17974859676664193147
13402501 40 18342737420969964016
13544592 145 18270128920288381310
14790565 3 17908994201191005865
15042514 8 18191873533892405547
15196674 1 18410856529976081566
15375358 24 18343866615200910982
18186145 218 18201727214817350440
200 152 16845855685150138058
20510252 161 18342459248711938305
20645477 56 18410293622761219728
20645477 70 17203057288073627646
21033648 29 18342165666017276744
21065198 57 18411699928693820962
21236236 1 18341332275253441647
21267235 1 18336835306807786307
21279426 13 18269558226339808350
21421861 104 17750502985271953402
22122407 14 15430327897065223269
221357 26 18131628967532776153
23175994 123 17275108344395955280
23227448 37 18341048618053264060
23402539 116 18412538846827169727
23402655 69 18131068208529289652
23557571 272 18342746251538334052
23559900 14 18271526391151403446
3004659 81 18335707088557568278
335352 9 18410856568245613789
350125 39 18409452522194264837
351380 180 18342174479584923540
3545911 37 18341896294727416792
4028521 119 18341892969874116496
4073 2 18114749334839713034
4214541 1 18411419514305071984
495365 180 17346303926350983370
5104073 3 18335985259569948114
633830 44 18200025115004324501
69090 78 18343580754709273606
77779 3 18411982455700122788
9709674 26 18342463659786276182

>  <PUBCHEM_SHAPE_MULTIPOLES>
396.95
11.7
2.35
0.66
9.05
0.35
0
-3.96
0.51
-2.32
-0.07
0.24
-0.01
0.68

>  <PUBCHEM_SHAPE_SELFOVERLAP>
891.042

>  <PUBCHEM_SHAPE_VOLUME>
208.7

>  <RI>
-1.84892e+08

>  <Rbt.Current_Directory>
/root/miniconda3/envs/rdock/share/rxdock-2013.1.1_148c5bd1-0/data/ligands/prepped_ligands/Scutellarein

>  <Rbt.Executable>
rbdock/0.1.0

>  <Rbt.Library>
librxdock.so/0.1.0

>  <Rbt.Parameter_File>
/root/miniconda3/envs/rdock/share/rxdock-2013.1.1_148c5bd1-0/data/scripts/dock.prm

>  <Rbt.Receptor>
def.prm

>  <SCORE>
-18.7727

>  <SCORE.INTER>
-19.7654

>  <SCORE.INTER.CONST>
1

>  <SCORE.INTER.POLAR>
-0.912941

>  <SCORE.INTER.REPUL>
0

>  <SCORE.INTER.ROT>
1

>  <SCORE.INTER.VDW>
-23.0614

>  <SCORE.INTER.norm>
-0.941209

>  <SCORE.INTRA>
1.72667

>  <SCORE.INTRA.DIHEDRAL>
2.06488

>  <SCORE.INTRA.DIHEDRAL.0>
1.23292

>  <SCORE.INTRA.POLAR>
0.232099

>  <SCORE.INTRA.POLAR.0>
-0.398136

>  <SCORE.INTRA.REPUL>
0

>  <SCORE.INTRA.REPUL.0>
0

>  <SCORE.INTRA.VDW>
-0.0949078

>  <SCORE.INTRA.VDW.0>
1.00302

>  <SCORE.INTRA.norm>
0.0822223

>  <SCORE.RESTR>
0.284406

>  <SCORE.RESTR.CAVITY>
0.284406

>  <SCORE.RESTR.norm>
0.0135431

>  <SCORE.SYSTEM>
-1.01839

>  <SCORE.SYSTEM.CONST>
0

>  <SCORE.SYSTEM.DIHEDRAL>
0.116053

>  <SCORE.SYSTEM.POLAR>
-0.00829453

>  <SCORE.SYSTEM.VDW>
-1.04821

>  <SCORE.SYSTEM.norm>
-0.0484946

>  <SCORE.heavy>
21

>  <SCORE.norm>
-0.893938

$$$$
5281697
  RxDock  02242112143D
librxdock.so/0.1.0
 25 27  0  0  0  0  0  0  0  0999 V2000
  -51.7634   -3.1697   14.8339 O   0  0  0  0  0  0
  -46.9968   -2.3494   15.0577 O   0  0  0  0  0  0
  -47.3700   -0.0311   13.6667 O   0  0  0  0  0  0
  -49.9055    0.7210   12.8612 O   0  0  0  0  0  0
  -48.1163   -4.4569   16.1148 O   0  0  0  0  0  0
  -56.4520   -7.0968   16.4392 O   0  0  0  0  0  0
  -49.3659   -2.8067   14.9748 C   0  0  0  0  0  0
  -50.6428   -2.4244   14.5675 C   0  0  0  0  0  0
  -51.6155   -4.3584   15.5323 C   0  0  0  0  0  0
  -49.2062   -4.0624   15.7239 C   0  0  0  0  0  0
  -48.2600   -2.0074   14.6761 C   0  0  0  0  0  0
  -52.8836   -5.0768   15.7693 C   0  0  0  0  0  0
  -50.4417   -4.8291   15.9830 C   0  0  0  0  0  0
  -50.8217   -1.2371   13.8573 C   0  0  0  0  0  0
  -48.4419   -0.8204   13.9652 C   0  0  0  0  0  0
  -49.7198   -0.4360   13.5567 C   0  0  0  0  0  0
  -52.8708   -6.3573   16.3277 C   0  0  0  0  0  0
  -54.1015   -4.4785   15.4374 C   0  0  0  0  0  0
  -54.0689   -7.0357   16.5523 C   0  0  0  0  0  0
  -55.2996   -5.1568   15.6622 C   0  0  0  0  0  0
  -55.2832   -6.4354   16.2196 C   0  0  0  0  0  0
  -46.9900   -3.2200   15.4834 H   0  0  0  0  0  0
  -46.8112   -0.5025   13.0247 H   0  0  0  0  0  0
  -49.0461    1.0041   12.5035 H   0  0  0  0  0  0
  -56.2639   -8.0464   16.5333 H   0  0  0  0  0  0
  1  8  1  0  0  0
  1  9  1  0  0  0
  2 11  1  0  0  0
  2 22  1  0  0  0
  3 15  1  0  0  0
  3 23  1  0  0  0
  4 16  1  0  0  0
  4 24  1  0  0  0
  5 10  2  0  0  0
  6 21  1  0  0  0
  6 25  1  0  0  0
  7  8  2  0  0  0
  7 10  1  0  0  0
  7 11  1  0  0  0
  8 14  1  0  0  0
  9 12  1  0  0  0
  9 13  2  0  0  0
 10 13  1  0  0  0
 11 15  2  0  0  0
 12 17  2  0  0  0
 12 18  1  0  0  0
 14 16  2  0  0  0
 15 16  1  0  0  0
 17 19  1  0  0  0
 18 20  2  0  0  0
 19 21  2  0  0  0
 20 21  1  0  0  0
M  END
>  <CHROM.0>
64.40111251,-52.67415978,-42.67884292

>  <CHROM.1>
4.17564326,67.91156126,-162.65856944,-19.20620596,172.86208775,-51.05869004
-3.46978582,15.10709531,2.42376346,0.11431909,2.62924629

>  <Name>
5281697

>  <PUBCHEM_ATOM_DEF_STEREO_COUNT>
0

>  <PUBCHEM_ATOM_UDEF_STEREO_COUNT>
0

>  <PUBCHEM_BOND_DEF_STEREO_COUNT>
0

>  <PUBCHEM_BOND_UDEF_STEREO_COUNT>
0

>  <PUBCHEM_CACTVS_TAUTO_COUNT>
95

>  <PUBCHEM_COMPONENT_COUNT>
1

>  <PUBCHEM_COMPOUND_CID>
5281697

>  <PUBCHEM_CONFORMER_DIVERSEORDER>
1

>  <PUBCHEM_CONFORMER_ID>
005097A100000001

>  <PUBCHEM_CONFORMER_RMSD>
0.6

>  <PUBCHEM_COORDINATE_TYPE>
2
5
10

>  <PUBCHEM_EFFECTIVE_ROTOR_COUNT>
1

>  <PUBCHEM_FEATURE_SELFOVERLAP>
45.711

>  <PUBCHEM_HEAVY_ATOM_COUNT>
21

>  <PUBCHEM_ISOTOPIC_ATOM_COUNT>
0

>  <PUBCHEM_MMFF94_ENERGY>
63.223

>  <PUBCHEM_MMFF94_PARTIAL_CHARGES>
31
1 -0.16
10 0.47
11 0.08
12 0.03
13 -0.14
14 -0.15
15 0.08
16 0.08
17 -0.15
18 -0.15
19 -0.15
2 -0.53
20 -0.15
21 0.08
22 0.15
23 0.15
24 0.15
25 0.15
26 0.15
27 0.15
28 0.45
29 0.45
3 -0.53
30 0.45
31 0.45
4 -0.53
5 -0.57
6 -0.53
7 0.09
8 0.08
9 0.05

>  <PUBCHEM_PHARMACOPHORE_FEATURES>
9
1 1 acceptor
1 2 donor
1 3 donor
1 4 donor
1 5 acceptor
1 6 donor
6 1 7 8 9 10 13 rings
6 12 17 18 19 20 21 rings
6 7 8 11 14 15 16 rings

>  <PUBCHEM_SHAPE_FINGERPRINT>
10319926 262 18339625825081195930
10411042 1 17833271204996093459
10493431 412 18339369548524999705
10498660 4 18336542707697077949
10608611 8 18342173410280654128
10646746 165 18410573976930762244
11315181 36 17967813890389513380
11578080 2 13756702948478097673
11595378 159 17530951459133022432
12107183 9 17901657173352244522
12173636 292 18409726240512267175
12236239 1 17458623445659141570
12390115 104 18270976634926273329
12403259 415 18201996655522882608
12596602 18 16660369224522060160
12916748 109 18408890624269960579
13140716 1 17974859676664193147
13402501 40 18342737420969964016
13544592 145 18270128920288381310
14790565 3 17908994201191005865
15042514 8 18191873533892405547
15196674 1 18410856529976081566
15375358 24 18343866615200910982
18186145 218 18201727214817350440
200 152 16845855685150138058
20510252 161 18342459248711938305
20645477 56 18410293622761219728
20645477 70 17203057288073627646
21033648 29 18342165666017276744
21065198 57 18411699928693820962
21236236 1 18341332275253441647
21267235 1 18336835306807786307
21279426 13 18269558226339808350
21421861 104 17750502985271953402
22122407 14 15430327897065223269
221357 26 18131628967532776153
23175994 123 17275108344395955280
23227448 37 18341048618053264060
23402539 116 18412538846827169727
23402655 69 18131068208529289652
23557571 272 18342746251538334052
23559900 14 18271526391151403446
3004659 81 18335707088557568278
335352 9 18410856568245613789
350125 39 18409452522194264837
351380 180 18342174479584923540
3545911 37 18341896294727416792
4028521 119 18341892969874116496
4073 2 18114749334839713034
4214541 1 18411419514305071984
495365 180 17346303926350983370
5104073 3 18335985259569948114
633830 44 18200025115004324501
69090 78 18343580754709273606
77779 3 18411982455700122788
9709674 26 18342463659786276182

>  <PUBCHEM_SHAPE_MULTIPOLES>
396.95
11.7
2.35
0.66
9.05
0.35
0
-3.96
0.51
-2.32
-0.07
0.24
-0.01
0.68

>  <PUBCHEM_SHAPE_SELFOVERLAP>
891.042

>  <PUBCHEM_SHAPE_VOLUME>
208.7

>  <RI>
-1.84892e+08

>  <Rbt.Current_Directory>
/root/miniconda3/envs/rdock/share/rxdock-2013.1.1_148c5bd1-0/data/ligands/prepped_ligands/Scutellarein

>  <Rbt.Executable>
rbdock/0.1.0

>  <Rbt.Library>
librxdock.so/0.1.0

>  <Rbt.Parameter_File>
/root/miniconda3/envs/rdock/share/rxdock-2013.1.1_148c5bd1-0/data/scripts/dock.prm

>  <Rbt.Receptor>
def.prm

>  <SCORE>
-15.0495

>  <SCORE.INTER>
-17.8816

>  <SCORE.INTER.CONST>
1

>  <SCORE.INTER.POLAR>
-2.37393

>  <SCORE.INTER.REPUL>
0.212671

>  <SCORE.INTER.ROT>
1

>  <SCORE.INTER.VDW>
-17.2736

>  <SCORE.INTER.norm>
-0.851504

>  <SCORE.INTRA>
3.18793

>  <SCORE.INTRA.DIHEDRAL>
3.94323

>  <SCORE.INTRA.DIHEDRAL.0>
1.23292

>  <SCORE.INTRA.POLAR>
0.368039

>  <SCORE.INTRA.POLAR.0>
-0.398136

>  <SCORE.INTRA.REPUL>
0

>  <SCORE.INTRA.REPUL.0>
0

>  <SCORE.INTRA.VDW>
-0.0350132

>  <SCORE.INTRA.VDW.0>
1.00302

>  <SCORE.INTRA.norm>
0.151806

>  <SCORE.RESTR>
0

>  <SCORE.RESTR.CAVITY>
0

>  <SCORE.RESTR.norm>
0

>  <SCORE.SYSTEM>
-0.355868

>  <SCORE.SYSTEM.CONST>
0

>  <SCORE.SYSTEM.DIHEDRAL>
0.984759

>  <SCORE.SYSTEM.POLAR>
-0.0200349

>  <SCORE.SYSTEM.VDW>
-0.780129

>  <SCORE.SYSTEM.norm>
-0.0169461

>  <SCORE.heavy>
21

>  <SCORE.norm>
-0.716644

$$$$
