Forsythoside_E.pdb
  RxDock  02242110573D
librxdock.so/0.1.0
 40 42  0  0  0  0  0  0  0  0999 V2000
  -47.0250   -3.3006   17.3196 O   0  0  0  0  0  0
  -45.3207   -1.2895   18.1929 O   0  0  0  0  0  0
  -43.5877   -1.0683   19.7986 O   0  0  0  0  0  0
  -45.0452   -1.6755   14.7023 O   0  0  0  0  0  0
  -49.1621   -4.2384   17.3337 O   0  0  0  0  0  0
  -47.7675   -1.3401   13.7880 O   0  0  0  0  0  0
  -49.4123   -3.6543   14.5766 O   0  0  0  0  0  0
  -43.7200    1.7649   19.3357 O   0  0  0  0  0  0
  -46.0809    2.1000   20.7710 O   0  0  0  0  0  0
  -45.8867   -0.1411   22.5267 O   0  0  0  0  0  0
  -53.7836   -7.6079   16.0772 O   0  0  0  0  0  0
  -55.1163   -5.1696   16.1382 O   0  0  0  0  0  0
  -45.8558   -2.9707   16.5676 C   0  0  0  0  0  0
  -46.1998   -1.9327   15.4971 C   0  0  0  0  0  0
  -47.3316   -2.4327   14.5989 C   0  0  0  0  0  0
  -48.5060   -2.9523   15.4274 C   0  0  0  0  0  0
  -44.8285    0.8998   19.0833 C   0  0  0  0  0  0
  -44.2714   -0.4682   18.6935 C   0  0  0  0  0  0
  -45.7049    0.7962   20.3330 C   0  0  0  0  0  0
  -44.9652    0.0799   21.4630 C   0  0  0  0  0  0
  -48.0353   -3.9115   16.5197 C   0  0  0  0  0  0
  -44.8106   -2.4476   17.5475 C   0  0  0  0  0  0
  -44.4033   -1.2573   20.9601 C   0  0  0  0  0  0
  -43.5311   -1.9424   22.0097 C   0  0  0  0  0  0
  -48.9923   -5.4958   17.9689 C   0  0  0  0  0  0
  -50.1922   -5.7865   18.8631 C   0  0  0  0  0  0
  -51.5039   -5.6256   18.1345 C   0  0  0  0  0  0
  -52.0477   -6.6996   17.4311 C   0  0  0  0  0  0
  -52.1733   -4.4014   18.1667 C   0  0  0  0  0  0
  -53.2614   -6.5508   16.7594 C   0  0  0  0  0  0
  -53.3861   -4.2531   17.4941 C   0  0  0  0  0  0
  -53.9300   -5.3272   16.7906 C   0  0  0  0  0  0
  -45.2914   -1.0351   14.0131 H   0  0  0  0  0  0
  -47.0501   -1.1162   13.1704 H   0  0  0  0  0  0
  -48.9092   -4.3335   14.0950 H   0  0  0  0  0  0
  -43.2062    1.8321   18.5133 H   0  0  0  0  0  0
  -46.6200    1.9955   21.5740 H   0  0  0  0  0  0
  -45.4023   -0.5465   23.2664 H   0  0  0  0  0  0
  -53.0604   -8.2020   15.8120 H   0  0  0  0  0  0
  -55.2708   -5.9444   15.5709 H   0  0  0  0  0  0
  1 13  1  0  0  0
  1 21  1  0  0  0
  2 18  1  0  0  0
  2 22  1  0  0  0
  3 18  1  0  0  0
  3 23  1  0  0  0
  4 14  1  0  0  0
  4 33  1  0  0  0
  5 21  1  0  0  0
  5 25  1  0  0  0
  6 15  1  0  0  0
  6 34  1  0  0  0
  7 16  1  0  0  0
  7 35  1  0  0  0
  8 17  1  0  0  0
  8 36  1  0  0  0
  9 19  1  0  0  0
  9 37  1  0  0  0
 10 20  1  0  0  0
 10 38  1  0  0  0
 11 30  1  0  0  0
 11 39  1  0  0  0
 12 32  1  0  0  0
 12 40  1  0  0  0
 13 14  1  0  0  0
 13 22  1  0  0  0
 14 15  1  0  0  0
 15 16  1  0  0  0
 16 21  1  0  0  0
 17 18  1  0  0  0
 19 17  1  0  0  0
 20 19  1  0  0  0
 23 20  1  0  0  0
 23 24  1  0  0  0
 25 26  1  0  0  0
 26 27  1  0  0  0
 27 28  2  0  0  0
 27 29  1  0  0  0
 28 30  1  0  0  0
 29 31  2  0  0  0
 30 32  2  0  0  0
 31 32  1  0  0  0
M  END
>  <CHROM.0>
-167.63010428,61.51765502,166.99440659

>  <CHROM.1>
-69.44685181,-156.98065563,178.32129606,-84.83231498,178.11019693,67.59536967
53.66889896,61.09321301,-178.88601378,-176.52289144,-25.87876855,-10.44009919
-60.56497545,51.40021996,87.67391957,-47.91931799,-2.68899160,17.82645537
-0.38758737,-0.56987559,-1.69954420

>  <Name>
Forsythoside_E.pdb

>  <RI>
-1.06433e+09

>  <Rbt.Current_Directory>
/root/miniconda3/envs/rdock/share/rxdock-2013.1.1_148c5bd1-0/data/ligands/prepped_ligands/Forsythoside_E

>  <Rbt.Executable>
rbdock/0.1.0

>  <Rbt.Library>
librxdock.so/0.1.0

>  <Rbt.Parameter_File>
/root/miniconda3/envs/rdock/share/rxdock-2013.1.1_148c5bd1-0/data/scripts/dock.prm

>  <Rbt.Receptor>
def.prm

>  <SCORE>
-18.8746

>  <SCORE.INTER>
-19.9127

>  <SCORE.INTER.CONST>
1

>  <SCORE.INTER.POLAR>
-3.46513

>  <SCORE.INTER.REPUL>
0.00523819

>  <SCORE.INTER.ROT>
7

>  <SCORE.INTER.VDW>
-20.5574

>  <SCORE.INTER.norm>
-0.622271

>  <SCORE.INTRA>
1.59522

>  <SCORE.INTRA.DIHEDRAL>
4.16452

>  <SCORE.INTRA.DIHEDRAL.0>
3.93665

>  <SCORE.INTRA.POLAR>
-0.114365

>  <SCORE.INTRA.POLAR.0>
0

>  <SCORE.INTRA.REPUL>
0

>  <SCORE.INTRA.REPUL.0>
0

>  <SCORE.INTRA.VDW>
-0.0982054

>  <SCORE.INTRA.VDW.0>
-1.0842

>  <SCORE.INTRA.norm>
0.0498505

>  <SCORE.RESTR>
0

>  <SCORE.RESTR.CAVITY>
0

>  <SCORE.RESTR.norm>
0

>  <SCORE.SYSTEM>
-0.55715

>  <SCORE.SYSTEM.CONST>
0

>  <SCORE.SYSTEM.DIHEDRAL>
0.778809

>  <SCORE.SYSTEM.VDW>
-0.946554

>  <SCORE.SYSTEM.norm>
-0.0174109

>  <SCORE.heavy>
32

>  <SCORE.norm>
-0.589832

$$$$
Forsythoside_E.pdb
  RxDock  02242110573D
librxdock.so/0.1.0
 40 42  0  0  0  0  0  0  0  0999 V2000
  -47.4435   -2.9107   16.0079 O   0  0  0  0  0  0
  -48.8183   -4.8574   16.4548 O   0  0  0  0  0  0
  -50.4355   -5.8680   17.8668 O   0  0  0  0  0  0
  -50.4064   -1.4148   14.4607 O   0  0  0  0  0  0
  -45.2096   -2.2439   16.1183 O   0  0  0  0  0  0
  -48.2168   -0.2680   12.9608 O   0  0  0  0  0  0
  -45.8660    0.1124   14.6963 O   0  0  0  0  0  0
  -49.4114   -8.4027   16.9805 O   0  0  0  0  0  0
  -47.1017   -8.2454   18.5256 O   0  0  0  0  0  0
  -48.0324   -6.5068   20.5879 O   0  0  0  0  0  0
  -49.3941   -0.7936   19.7438 O   0  0  0  0  0  0
  -49.4348    1.7632   18.6547 O   0  0  0  0  0  0
  -48.8144   -2.5258   15.8908 C   0  0  0  0  0  0
  -49.0570   -1.8678   14.5307 C   0  0  0  0  0  0
  -48.1137   -0.6825   14.3242 C   0  0  0  0  0  0
  -46.6670   -1.0676   14.6315 C   0  0  0  0  0  0
  -48.6232   -7.2116   16.9528 C   0  0  0  0  0  0
  -49.5703   -6.0323   16.7383 C   0  0  0  0  0  0
  -47.8556   -7.0629   18.2677 C   0  0  0  0  0  0
  -48.8110   -6.8111   19.4344 C   0  0  0  0  0  0
  -46.5569   -1.7944   15.9710 C   0  0  0  0  0  0
  -49.6620   -3.7809   16.0711 C   0  0  0  0  0  0
  -49.7500   -5.6426   19.1034 C   0  0  0  0  0  0
  -50.8194   -5.4466   20.1757 C   0  0  0  0  0  0
  -44.9387   -2.6327   17.4558 C   0  0  0  0  0  0
  -44.7469   -1.3935   18.3227 C   0  0  0  0  0  0
  -45.9987   -0.5556   18.4121 C   0  0  0  0  0  0
  -47.1348   -1.0633   19.0411 C   0  0  0  0  0  0
  -46.0181    0.7288   17.8662 C   0  0  0  0  0  0
  -48.2911   -0.2873   19.1251 C   0  0  0  0  0  0
  -47.1748    1.5035   17.9499 C   0  0  0  0  0  0
  -48.3110    0.9958   18.5789 C   0  0  0  0  0  0
  -50.9859   -2.1957   14.4598 H   0  0  0  0  0  0
  -48.0660   -1.0452   12.3957 H   0  0  0  0  0  0
  -45.8086    0.4876   13.8006 H   0  0  0  0  0  0
  -50.0534   -8.3138   17.7049 H   0  0  0  0  0  0
  -47.7304   -8.9843   18.5966 H   0  0  0  0  0  0
  -47.5085   -7.2943   20.8148 H   0  0  0  0  0  0
  -50.1004   -0.1248   19.7290 H   0  0  0  0  0  0
  -49.3156    2.5545   18.1018 H   0  0  0  0  0  0
  1 13  1  0  0  0
  1 21  1  0  0  0
  2 18  1  0  0  0
  2 22  1  0  0  0
  3 18  1  0  0  0
  3 23  1  0  0  0
  4 14  1  0  0  0
  4 33  1  0  0  0
  5 21  1  0  0  0
  5 25  1  0  0  0
  6 15  1  0  0  0
  6 34  1  0  0  0
  7 16  1  0  0  0
  7 35  1  0  0  0
  8 17  1  0  0  0
  8 36  1  0  0  0
  9 19  1  0  0  0
  9 37  1  0  0  0
 10 20  1  0  0  0
 10 38  1  0  0  0
 11 30  1  0  0  0
 11 39  1  0  0  0
 12 32  1  0  0  0
 12 40  1  0  0  0
 13 14  1  0  0  0
 13 22  1  0  0  0
 14 15  1  0  0  0
 15 16  1  0  0  0
 16 21  1  0  0  0
 17 18  1  0  0  0
 19 17  1  0  0  0
 20 19  1  0  0  0
 23 20  1  0  0  0
 23 24  1  0  0  0
 25 26  1  0  0  0
 26 27  1  0  0  0
 27 28  2  0  0  0
 27 29  1  0  0  0
 28 30  1  0  0  0
 29 31  2  0  0  0
 30 32  2  0  0  0
 31 32  1  0  0  0
M  END
>  <CHROM.0>
64.38083355,-176.36424237,-56.30146819

>  <CHROM.1>
-64.34062438,175.46881063,-66.91079552,-73.91800344,-76.73806121,-53.16802077
-68.45492117,-59.00278138,-60.76720758,-64.51927465,179.02202536,-170.81428433
7.14222051,63.89379776,65.46266541,-48.06092946,-2.94832961,17.22004706,0.39995069
-1.32939804,-1.42594609

>  <Name>
Forsythoside_E.pdb

>  <RI>
-1.06433e+09

>  <Rbt.Current_Directory>
/root/miniconda3/envs/rdock/share/rxdock-2013.1.1_148c5bd1-0/data/ligands/prepped_ligands/Forsythoside_E

>  <Rbt.Executable>
rbdock/0.1.0

>  <Rbt.Library>
librxdock.so/0.1.0

>  <Rbt.Parameter_File>
/root/miniconda3/envs/rdock/share/rxdock-2013.1.1_148c5bd1-0/data/scripts/dock.prm

>  <Rbt.Receptor>
def.prm

>  <SCORE>
-7.20938

>  <SCORE.INTER>
-9.03741

>  <SCORE.INTER.CONST>
1

>  <SCORE.INTER.POLAR>
-0.842424

>  <SCORE.INTER.REPUL>
0.169725

>  <SCORE.INTER.ROT>
7

>  <SCORE.INTER.VDW>
-19.4218

>  <SCORE.INTER.norm>
-0.282419

>  <SCORE.INTRA>
2.81389

>  <SCORE.INTRA.DIHEDRAL>
5.45882

>  <SCORE.INTRA.DIHEDRAL.0>
3.93665

>  <SCORE.INTRA.POLAR>
-0.147052

>  <SCORE.INTRA.POLAR.0>
0

>  <SCORE.INTRA.REPUL>
0.056719

>  <SCORE.INTRA.REPUL.0>
0

>  <SCORE.INTRA.VDW>
0.30086

>  <SCORE.INTRA.VDW.0>
-1.0842

>  <SCORE.INTRA.norm>
0.0879339

>  <SCORE.RESTR>
0

>  <SCORE.RESTR.CAVITY>
0

>  <SCORE.RESTR.norm>
0

>  <SCORE.SYSTEM>
-0.98586

>  <SCORE.SYSTEM.CONST>
0

>  <SCORE.SYSTEM.DIHEDRAL>
0.139817

>  <SCORE.SYSTEM.POLAR>
-0.00910884

>  <SCORE.SYSTEM.VDW>
-1.0248

>  <SCORE.SYSTEM.norm>
-0.0308081

>  <SCORE.heavy>
32

>  <SCORE.norm>
-0.225293

$$$$
Forsythoside_E.pdb
  RxDock  02242110573D
librxdock.so/0.1.0
 40 42  0  0  0  0  0  0  0  0999 V2000
  -47.7324   -3.3190   16.7486 O   0  0  0  0  0  0
  -46.5322   -1.4461   18.2253 O   0  0  0  0  0  0
  -46.7588   -0.3333   20.3087 O   0  0  0  0  0  0
  -45.4266   -1.3445   14.7003 O   0  0  0  0  0  0
  -49.7344   -4.4167   16.2646 O   0  0  0  0  0  0
  -47.9304   -1.1481   13.2680 O   0  0  0  0  0  0
  -49.4810   -3.6371   13.5566 O   0  0  0  0  0  0
  -43.9798    0.3605   20.0744 O   0  0  0  0  0  0
  -44.4177    2.3272   18.1543 O   0  0  0  0  0  0
  -47.1197    3.0003   18.7776 O   0  0  0  0  0  0
  -53.3225   -3.4129   19.8730 O   0  0  0  0  0  0
  -52.7194   -5.6667   21.3836 O   0  0  0  0  0  0
  -46.4716   -2.8418   16.2751 C   0  0  0  0  0  0
  -46.6883   -1.7518   15.2231 C   0  0  0  0  0  0
  -47.5673   -2.2647   14.0821 C   0  0  0  0  0  0
  -48.8310   -2.9370   14.6174 C   0  0  0  0  0  0
  -44.7897    0.0667   18.9348 C   0  0  0  0  0  0
  -45.8597   -0.9330   19.3701 C   0  0  0  0  0  0
  -45.4274    1.3513   18.4025 C   0  0  0  0  0  0
  -46.4379    1.9160   19.4011 C   0  0  0  0  0  0
  -48.5024   -3.9406   15.7217 C   0  0  0  0  0  0
  -45.6955   -2.3190   17.4796 C   0  0  0  0  0  0
  -47.4373    0.8258   19.8125 C   0  0  0  0  0  0
  -48.3770    1.2992   20.9191 C   0  0  0  0  0  0
  -50.2787   -5.4598   15.4717 C   0  0  0  0  0  0
  -51.7551   -5.6422   15.8049 C   0  0  0  0  0  0
  -52.0124   -5.6444   17.2918 C   0  0  0  0  0  0
  -52.5529   -4.5166   17.9082 C   0  0  0  0  0  0
  -51.7106   -6.7770   18.0495 C   0  0  0  0  0  0
  -52.7923   -4.5201   19.2825 C   0  0  0  0  0  0
  -51.9494   -6.7793   19.4237 C   0  0  0  0  0  0
  -52.4899   -5.6514   20.0401 C   0  0  0  0  0  0
  -45.5878   -0.8426   13.8831 H   0  0  0  0  0  0
  -48.4661   -1.4762   12.5253 H   0  0  0  0  0  0
  -48.8621   -4.3035   13.2111 H   0  0  0  0  0  0
  -43.5441   -0.4648   20.3463 H   0  0  0  0  0  0
  -44.8319    3.0605   17.6676 H   0  0  0  0  0  0
  -47.7071    3.4072   19.4377 H   0  0  0  0  0  0
  -53.7679   -2.8754   19.1956 H   0  0  0  0  0  0
  -52.3025   -6.4575   21.7668 H   0  0  0  0  0  0
  1 13  1  0  0  0
  1 21  1  0  0  0
  2 18  1  0  0  0
  2 22  1  0  0  0
  3 18  1  0  0  0
  3 23  1  0  0  0
  4 14  1  0  0  0
  4 33  1  0  0  0
  5 21  1  0  0  0
  5 25  1  0  0  0
  6 15  1  0  0  0
  6 34  1  0  0  0
  7 16  1  0  0  0
  7 35  1  0  0  0
  8 17  1  0  0  0
  8 36  1  0  0  0
  9 19  1  0  0  0
  9 37  1  0  0  0
 10 20  1  0  0  0
 10 38  1  0  0  0
 11 30  1  0  0  0
 11 39  1  0  0  0
 12 32  1  0  0  0
 12 40  1  0  0  0
 13 14  1  0  0  0
 13 22  1  0  0  0
 14 15  1  0  0  0
 15 16  1  0  0  0
 16 21  1  0  0  0
 17 18  1  0  0  0
 19 17  1  0  0  0
 20 19  1  0  0  0
 23 20  1  0  0  0
 23 24  1  0  0  0
 25 26  1  0  0  0
 26 27  1  0  0  0
 27 28  2  0  0  0
 27 29  1  0  0  0
 28 30  1  0  0  0
 29 31  2  0  0  0
 30 32  2  0  0  0
 31 32  1  0  0  0
M  END
>  <CHROM.0>
-163.33083355,-65.57098960,-65.10047853

>  <CHROM.1>
-165.27075083,179.63054538,164.90408362,-157.01363013,-162.38744814,178.21785341
59.73164671,62.90937030,169.68329326,-175.21257241,20.93794981,-169.62469108
-49.40277519,-45.27758341,103.34419027,-48.45010046,-2.26054484,17.63853018
-2.80437709,0.71895048,1.15205400

>  <Name>
Forsythoside_E.pdb

>  <RI>
-1.06433e+09

>  <Rbt.Current_Directory>
/root/miniconda3/envs/rdock/share/rxdock-2013.1.1_148c5bd1-0/data/ligands/prepped_ligands/Forsythoside_E

>  <Rbt.Executable>
rbdock/0.1.0

>  <Rbt.Library>
librxdock.so/0.1.0

>  <Rbt.Parameter_File>
/root/miniconda3/envs/rdock/share/rxdock-2013.1.1_148c5bd1-0/data/scripts/dock.prm

>  <Rbt.Receptor>
def.prm

>  <SCORE>
-13.6989

>  <SCORE.INTER>
-17.5555

>  <SCORE.INTER.CONST>
1

>  <SCORE.INTER.POLAR>
-4.10177

>  <SCORE.INTER.REPUL>
0.378158

>  <SCORE.INTER.ROT>
7

>  <SCORE.INTER.VDW>
-17.9002

>  <SCORE.INTER.norm>
-0.548609

>  <SCORE.INTRA>
4.463

>  <SCORE.INTRA.DIHEDRAL>
5.29215

>  <SCORE.INTRA.DIHEDRAL.0>
3.93665

>  <SCORE.INTRA.POLAR>
-0.0151706

>  <SCORE.INTRA.POLAR.0>
0

>  <SCORE.INTRA.REPUL>
0

>  <SCORE.INTRA.REPUL.0>
0

>  <SCORE.INTRA.VDW>
1.86851

>  <SCORE.INTRA.VDW.0>
-1.0842

>  <SCORE.INTRA.norm>
0.139469

>  <SCORE.RESTR>
0

>  <SCORE.RESTR.CAVITY>
0

>  <SCORE.RESTR.norm>
0

>  <SCORE.SYSTEM>
-0.606435

>  <SCORE.SYSTEM.CONST>
0

>  <SCORE.SYSTEM.DIHEDRAL>
0.852505

>  <SCORE.SYSTEM.VDW>
-1.03269

>  <SCORE.SYSTEM.norm>
-0.0189511

>  <SCORE.heavy>
32

>  <SCORE.norm>
-0.428091

$$$$
Forsythoside_E.pdb
  RxDock  02242110573D
librxdock.so/0.1.0
 40 42  0  0  0  0  0  0  0  0999 V2000
  -49.8699   -1.4599   16.1091 O   0  0  0  0  0  0
  -51.7230   -3.2311   16.3045 O   0  0  0  0  0  0
  -52.8800   -4.1682   18.1521 O   0  0  0  0  0  0
  -50.2563   -2.8637   12.7489 O   0  0  0  0  0  0
  -48.0619   -0.4862   17.2182 O   0  0  0  0  0  0
  -47.4123   -3.0563   13.2319 O   0  0  0  0  0  0
  -46.4921   -0.7971   14.8848 O   0  0  0  0  0  0
  -55.0436   -4.7041   16.3381 O   0  0  0  0  0  0
  -53.7656   -6.8558   15.1202 O   0  0  0  0  0  0
  -52.0328   -7.6397   17.2475 O   0  0  0  0  0  0
  -43.7811   -1.3965   19.8570 O   0  0  0  0  0  0
  -42.4615    0.8724   18.9429 O   0  0  0  0  0  0
  -50.5161   -1.7385   14.8657 C   0  0  0  0  0  0
  -49.6387   -2.6617   14.0173 C   0  0  0  0  0  0
  -48.2500   -2.0556   13.8134 C   0  0  0  0  0  0
  -47.6477   -1.5953   15.1404 C   0  0  0  0  0  0
  -53.6937   -4.5632   15.8923 C   0  0  0  0  0  0
  -52.9883   -3.5982   16.8436 C   0  0  0  0  0  0
  -53.0010   -5.9272   15.8860 C   0  0  0  0  0  0
  -52.8350   -6.4641   17.3078 C   0  0  0  0  0  0
  -48.6415   -0.7552   15.9411 C   0  0  0  0  0  0
  -51.8664   -2.3740   15.1808 C   0  0  0  0  0  0
  -52.1629   -5.4067   18.1948 C   0  0  0  0  0  0
  -52.1079   -5.8389   19.6584 C   0  0  0  0  0  0
  -48.7641    0.5429   17.8971 C   0  0  0  0  0  0
  -48.1141    0.8021   19.2514 C   0  0  0  0  0  0
  -46.6073    0.8175   19.1718 C   0  0  0  0  0  0
  -45.8767   -0.3062   19.5562 C   0  0  0  0  0  0
  -45.9453    1.9567   18.7114 C   0  0  0  0  0  0
  -44.4838   -0.2920   19.4804 C   0  0  0  0  0  0
  -44.5526    1.9703   18.6369 C   0  0  0  0  0  0
  -43.8220    0.8467   19.0213 C   0  0  0  0  0  0
  -50.0633   -2.0888   12.1940 H   0  0  0  0  0  0
  -47.4446   -3.8456   13.7994 H   0  0  0  0  0  0
  -46.0156   -1.1883   14.1323 H   0  0  0  0  0  0
  -55.5133   -5.2506   15.6857 H   0  0  0  0  0  0
  -53.8094   -6.5185   14.2089 H   0  0  0  0  0  0
  -52.4232   -8.2381   16.5875 H   0  0  0  0  0  0
  -44.3446   -1.9529   20.4219 H   0  0  0  0  0  0
  -42.1143   -0.0050   19.1784 H   0  0  0  0  0  0
  1 13  1  0  0  0
  1 21  1  0  0  0
  2 18  1  0  0  0
  2 22  1  0  0  0
  3 18  1  0  0  0
  3 23  1  0  0  0
  4 14  1  0  0  0
  4 33  1  0  0  0
  5 21  1  0  0  0
  5 25  1  0  0  0
  6 15  1  0  0  0
  6 34  1  0  0  0
  7 16  1  0  0  0
  7 35  1  0  0  0
  8 17  1  0  0  0
  8 36  1  0  0  0
  9 19  1  0  0  0
  9 37  1  0  0  0
 10 20  1  0  0  0
 10 38  1  0  0  0
 11 30  1  0  0  0
 11 39  1  0  0  0
 12 32  1  0  0  0
 12 40  1  0  0  0
 13 14  1  0  0  0
 13 22  1  0  0  0
 14 15  1  0  0  0
 15 16  1  0  0  0
 16 21  1  0  0  0
 17 18  1  0  0  0
 19 17  1  0  0  0
 20 19  1  0  0  0
 23 20  1  0  0  0
 23 24  1  0  0  0
 25 26  1  0  0  0
 26 27  1  0  0  0
 27 28  2  0  0  0
 27 29  1  0  0  0
 28 30  1  0  0  0
 29 31  2  0  0  0
 30 32  2  0  0  0
 31 32  1  0  0  0
M  END
>  <CHROM.0>
-64.77153689,67.04491320,36.86025049

>  <CHROM.1>
-165.13420386,165.90707174,80.20947108,-73.64177323,-179.86831163,-54.40505401
-38.40503999,174.74524174,61.47410065,-52.06769768,-19.54902911,4.37794514
-37.55467599,42.62694083,-100.13219084,-49.28573742,-2.36368604,16.83296521
-2.99722515,0.64536152,1.69608117

>  <Name>
Forsythoside_E.pdb

>  <RI>
-1.06433e+09

>  <Rbt.Current_Directory>
/root/miniconda3/envs/rdock/share/rxdock-2013.1.1_148c5bd1-0/data/ligands/prepped_ligands/Forsythoside_E

>  <Rbt.Executable>
rbdock/0.1.0

>  <Rbt.Library>
librxdock.so/0.1.0

>  <Rbt.Parameter_File>
/root/miniconda3/envs/rdock/share/rxdock-2013.1.1_148c5bd1-0/data/scripts/dock.prm

>  <Rbt.Receptor>
def.prm

>  <SCORE>
-17.5686

>  <SCORE.INTER>
-21.7068

>  <SCORE.INTER.CONST>
1

>  <SCORE.INTER.POLAR>
-3.90808

>  <SCORE.INTER.REPUL>
0.000872064

>  <SCORE.INTER.ROT>
7

>  <SCORE.INTER.VDW>
-20.8237

>  <SCORE.INTER.norm>
-0.678338

>  <SCORE.INTRA>
4.24052

>  <SCORE.INTRA.DIHEDRAL>
7.45122

>  <SCORE.INTRA.DIHEDRAL.0>
3.93665

>  <SCORE.INTRA.POLAR>
-0.155514

>  <SCORE.INTRA.POLAR.0>
0

>  <SCORE.INTRA.REPUL>
0

>  <SCORE.INTRA.REPUL.0>
0

>  <SCORE.INTRA.VDW>
1.04366

>  <SCORE.INTRA.VDW.0>
-1.0842

>  <SCORE.INTRA.norm>
0.132516

>  <SCORE.RESTR>
0.168118

>  <SCORE.RESTR.CAVITY>
0.168118

>  <SCORE.RESTR.norm>
0.0052537

>  <SCORE.SYSTEM>
-0.270413

>  <SCORE.SYSTEM.CONST>
0

>  <SCORE.SYSTEM.DIHEDRAL>
1.48349

>  <SCORE.SYSTEM.VDW>
-1.01216

>  <SCORE.SYSTEM.norm>
-0.0084504

>  <SCORE.heavy>
32

>  <SCORE.norm>
-0.549019

$$$$
Forsythoside_E.pdb
  RxDock  02242110573D
librxdock.so/0.1.0
 40 42  0  0  0  0  0  0  0  0999 V2000
  -49.8119   -2.1473   16.6777 O   0  0  0  0  0  0
  -52.0150   -3.3461   17.1978 O   0  0  0  0  0  0
  -53.1663   -4.6744   18.7917 O   0  0  0  0  0  0
  -51.0955   -1.7728   13.2685 O   0  0  0  0  0  0
  -47.9223   -1.3048   17.7578 O   0  0  0  0  0  0
  -48.2705   -1.2273   12.9838 O   0  0  0  0  0  0
  -47.2278    0.0976   15.4005 O   0  0  0  0  0  0
  -53.2156   -6.7525   16.8073 O   0  0  0  0  0  0
  -50.5295   -7.4083   17.1264 O   0  0  0  0  0  0
  -50.1445   -6.5227   19.8115 O   0  0  0  0  0  0
  -42.5083   -1.1668   19.3840 O   0  0  0  0  0  0
  -42.4793    1.4412   18.4236 O   0  0  0  0  0  0
  -50.7918   -1.9796   15.6516 C   0  0  0  0  0  0
  -50.1205   -2.0240   14.2771 C   0  0  0  0  0  0
  -49.0105   -0.9771   14.1801 C   0  0  0  0  0  0
  -48.0726   -1.0531   15.3844 C   0  0  0  0  0  0
  -52.2306   -5.7177   16.8015 C   0  0  0  0  0  0
  -52.8661   -4.4676   17.4075 C   0  0  0  0  0  0
  -51.0086   -6.1557   17.6110 C   0  0  0  0  0  0
  -51.3531   -6.2888   19.0945 C   0  0  0  0  0  0
  -48.8540   -1.0910   16.6969 C   0  0  0  0  0  0
  -51.8229   -3.0917   15.8135 C   0  0  0  0  0  0
  -52.0285   -5.0045   19.5956 C   0  0  0  0  0  0
  -52.5242   -5.1424   21.0333 C   0  0  0  0  0  0
  -48.4310   -0.8307   18.9946 C   0  0  0  0  0  0
  -47.3513   -0.9290   20.0663 C   0  0  0  0  0  0
  -46.0505   -0.3002   19.6306 C   0  0  0  0  0  0
  -44.8633   -1.0271   19.7092 C   0  0  0  0  0  0
  -46.0368    1.0090   19.1471 C   0  0  0  0  0  0
  -43.6614   -0.4460   19.3043 C   0  0  0  0  0  0
  -44.8346    1.5895   18.7434 C   0  0  0  0  0  0
  -43.6474    0.8626   18.8220 C   0  0  0  0  0  0
  -51.7469   -2.4944   13.2939 H   0  0  0  0  0  0
  -48.8736   -1.1247   12.2276 H   0  0  0  0  0  0
  -46.6538    0.0395   16.1839 H   0  0  0  0  0  0
  -52.8446   -7.5142   16.3308 H   0  0  0  0  0  0
  -51.2261   -8.0690   17.2827 H   0  0  0  0  0  0
  -49.5778   -5.7384   19.7120 H   0  0  0  0  0  0
  -41.8081   -0.6988   18.8974 H   0  0  0  0  0  0
  -42.6677    2.3326   18.0832 H   0  0  0  0  0  0
  1 13  1  0  0  0
  1 21  1  0  0  0
  2 18  1  0  0  0
  2 22  1  0  0  0
  3 18  1  0  0  0
  3 23  1  0  0  0
  4 14  1  0  0  0
  4 33  1  0  0  0
  5 21  1  0  0  0
  5 25  1  0  0  0
  6 15  1  0  0  0
  6 34  1  0  0  0
  7 16  1  0  0  0
  7 35  1  0  0  0
  8 17  1  0  0  0
  8 36  1  0  0  0
  9 19  1  0  0  0
  9 37  1  0  0  0
 10 20  1  0  0  0
 10 38  1  0  0  0
 11 30  1  0  0  0
 11 39  1  0  0  0
 12 32  1  0  0  0
 12 40  1  0  0  0
 13 14  1  0  0  0
 13 22  1  0  0  0
 14 15  1  0  0  0
 15 16  1  0  0  0
 16 21  1  0  0  0
 17 18  1  0  0  0
 19 17  1  0  0  0
 20 19  1  0  0  0
 23 20  1  0  0  0
 23 24  1  0  0  0
 25 26  1  0  0  0
 26 27  1  0  0  0
 27 28  2  0  0  0
 27 29  1  0  0  0
 28 30  1  0  0  0
 29 31  2  0  0  0
 30 32  2  0  0  0
 31 32  1  0  0  0
M  END
>  <CHROM.0>
-51.15953645,178.38076938,177.82641422

>  <CHROM.1>
-175.01807073,-174.06599914,-63.69284688,-83.16765848,-173.52683792,61.95301174
178.75772064,173.65363194,-63.85734107,63.89147533,168.15355169,177.48712792
36.30999645,50.81890002,-127.35843398,-48.92039980,-2.49976111,17.49556687
2.92626963,0.61805899,2.08308522

>  <Name>
Forsythoside_E.pdb

>  <RI>
-1.06433e+09

>  <Rbt.Current_Directory>
/root/miniconda3/envs/rdock/share/rxdock-2013.1.1_148c5bd1-0/data/ligands/prepped_ligands/Forsythoside_E

>  <Rbt.Executable>
rbdock/0.1.0

>  <Rbt.Library>
librxdock.so/0.1.0

>  <Rbt.Parameter_File>
/root/miniconda3/envs/rdock/share/rxdock-2013.1.1_148c5bd1-0/data/scripts/dock.prm

>  <Rbt.Receptor>
def.prm

>  <SCORE>
-6.99952

>  <SCORE.INTER>
-8.36779

>  <SCORE.INTER.CONST>
1

>  <SCORE.INTER.POLAR>
-1.49764

>  <SCORE.INTER.REPUL>
0.48695

>  <SCORE.INTER.ROT>
7

>  <SCORE.INTER.VDW>
-18.1106

>  <SCORE.INTER.norm>
-0.261493

>  <SCORE.INTRA>
2.34538

>  <SCORE.INTRA.DIHEDRAL>
2.44762

>  <SCORE.INTRA.DIHEDRAL.0>
3.93665

>  <SCORE.INTRA.POLAR>
-0.128082

>  <SCORE.INTRA.POLAR.0>
0

>  <SCORE.INTRA.REPUL>
0

>  <SCORE.INTRA.REPUL.0>
0

>  <SCORE.INTRA.VDW>
1.55704

>  <SCORE.INTRA.VDW.0>
-1.0842

>  <SCORE.INTRA.norm>
0.073293

>  <SCORE.RESTR>
0.0043145

>  <SCORE.RESTR.CAVITY>
0.0043145

>  <SCORE.RESTR.norm>
0.000134828

>  <SCORE.SYSTEM>
-0.981422

>  <SCORE.SYSTEM.CONST>
0

>  <SCORE.SYSTEM.DIHEDRAL>
0.20965

>  <SCORE.SYSTEM.VDW>
-1.08625

>  <SCORE.SYSTEM.norm>
-0.0306694

>  <SCORE.heavy>
32

>  <SCORE.norm>
-0.218735

$$$$
Forsythoside_E.pdb
  RxDock  02242110583D
librxdock.so/0.1.0
 40 42  0  0  0  0  0  0  0  0999 V2000
  -47.8691   -2.5609   16.6142 O   0  0  0  0  0  0
  -46.3181   -0.8309   17.9689 O   0  0  0  0  0  0
  -45.1330    1.2057   17.6893 O   0  0  0  0  0  0
  -46.4654   -0.0009   14.4036 O   0  0  0  0  0  0
  -49.8701   -3.7614   16.5735 O   0  0  0  0  0  0
  -49.3099    0.1835   13.9199 O   0  0  0  0  0  0
  -50.5697   -2.4699   14.1553 O   0  0  0  0  0  0
  -47.5631    2.5512   18.4261 O   0  0  0  0  0  0
  -47.3251    1.9433   21.1317 O   0  0  0  0  0  0
  -44.4942    1.6245   21.2954 O   0  0  0  0  0  0
  -55.2593   -5.1572   16.0299 O   0  0  0  0  0  0
  -54.3072   -7.7667   15.9352 O   0  0  0  0  0  0
  -46.8603   -1.8694   15.8756 C   0  0  0  0  0  0
  -47.4615   -0.6334   15.2028 C   0  0  0  0  0  0
  -48.6493   -1.0183   14.3205 C   0  0  0  0  0  0
  -49.6321   -1.9122   15.0761 C   0  0  0  0  0  0
  -47.2852    1.2082   18.8262 C   0  0  0  0  0  0
  -46.4149    0.5714   17.7441 C   0  0  0  0  0  0
  -46.5669    1.2040   20.1769 C   0  0  0  0  0  0
  -45.1721    1.8185   20.0576 C   0  0  0  0  0  0
  -48.9116   -3.0613   15.7797 C   0  0  0  0  0  0
  -45.7486   -1.4977   16.8514 C   0  0  0  0  0  0
  -44.3965    1.1467   18.9157 C   0  0  0  0  0  0
  -43.0523    1.8248   18.6607 C   0  0  0  0  0  0
  -50.4663   -2.9062   17.5360 C   0  0  0  0  0  0
  -51.2899   -3.7319   18.5177 C   0  0  0  0  0  0
  -52.0976   -4.8048   17.8295 C   0  0  0  0  0  0
  -53.3211   -4.4877   17.2408 C   0  0  0  0  0  0
  -51.6183   -6.1148   17.7811 C   0  0  0  0  0  0
  -54.0663   -5.4797   16.6030 C   0  0  0  0  0  0
  -52.3645   -7.1061   17.1441 C   0  0  0  0  0  0
  -53.5880   -6.7889   16.5554 C   0  0  0  0  0  0
  -46.1112   -0.6628   13.7854 H   0  0  0  0  0  0
  -49.6629    0.6152   14.7169 H   0  0  0  0  0  0
  -50.0719   -2.9539   13.4738 H   0  0  0  0  0  0
  -48.0675    2.9730   19.1420 H   0  0  0  0  0  0
  -46.8517    1.8986   21.9803 H   0  0  0  0  0  0
  -44.4284    0.6675   21.4568 H   0  0  0  0  0  0
  -55.4877   -5.8355   15.3712 H   0  0  0  0  0  0
  -53.6930   -8.3971   15.5213 H   0  0  0  0  0  0
  1 13  1  0  0  0
  1 21  1  0  0  0
  2 18  1  0  0  0
  2 22  1  0  0  0
  3 18  1  0  0  0
  3 23  1  0  0  0
  4 14  1  0  0  0
  4 33  1  0  0  0
  5 21  1  0  0  0
  5 25  1  0  0  0
  6 15  1  0  0  0
  6 34  1  0  0  0
  7 16  1  0  0  0
  7 35  1  0  0  0
  8 17  1  0  0  0
  8 36  1  0  0  0
  9 19  1  0  0  0
  9 37  1  0  0  0
 10 20  1  0  0  0
 10 38  1  0  0  0
 11 30  1  0  0  0
 11 39  1  0  0  0
 12 32  1  0  0  0
 12 40  1  0  0  0
 13 14  1  0  0  0
 13 22  1  0  0  0
 14 15  1  0  0  0
 15 16  1  0  0  0
 16 21  1  0  0  0
 17 18  1  0  0  0
 19 17  1  0  0  0
 20 19  1  0  0  0
 23 20  1  0  0  0
 23 24  1  0  0  0
 25 26  1  0  0  0
 26 27  1  0  0  0
 27 28  2  0  0  0
 27 29  1  0  0  0
 28 30  1  0  0  0
 29 31  2  0  0  0
 30 32  2  0  0  0
 31 32  1  0  0  0
M  END
>  <CHROM.0>
-69.04779593,-177.12493436,43.76618496

>  <CHROM.1>
-68.11208017,-88.07930480,54.95167747,61.08520138,-169.98099086,-63.80181651
57.08677187,-176.36167261,178.50309033,60.59849168,159.43735604,145.87900502
-51.52880963,-42.53512052,-81.99384431,-48.80173190,-1.74688474,17.20362622
-0.26189905,-0.73215026,-1.62330437

>  <Name>
Forsythoside_E.pdb

>  <RI>
-1.06433e+09

>  <Rbt.Current_Directory>
/root/miniconda3/envs/rdock/share/rxdock-2013.1.1_148c5bd1-0/data/ligands/prepped_ligands/Forsythoside_E

>  <Rbt.Executable>
rbdock/0.1.0

>  <Rbt.Library>
librxdock.so/0.1.0

>  <Rbt.Parameter_File>
/root/miniconda3/envs/rdock/share/rxdock-2013.1.1_148c5bd1-0/data/scripts/dock.prm

>  <Rbt.Receptor>
def.prm

>  <SCORE>
-15.7352

>  <SCORE.INTER>
-19.2938

>  <SCORE.INTER.CONST>
1

>  <SCORE.INTER.POLAR>
-3.4857

>  <SCORE.INTER.REPUL>
0.0784306

>  <SCORE.INTER.ROT>
7

>  <SCORE.INTER.VDW>
-20.2346

>  <SCORE.INTER.norm>
-0.602932

>  <SCORE.INTRA>
4.15021

>  <SCORE.INTRA.DIHEDRAL>
4.65366

>  <SCORE.INTRA.DIHEDRAL.0>
3.93665

>  <SCORE.INTRA.POLAR>
-0.0885532

>  <SCORE.INTRA.POLAR.0>
0

>  <SCORE.INTRA.REPUL>
0

>  <SCORE.INTRA.REPUL.0>
0

>  <SCORE.INTRA.VDW>
2.12446

>  <SCORE.INTRA.VDW.0>
-1.0842

>  <SCORE.INTRA.norm>
0.129694

>  <SCORE.RESTR>
0

>  <SCORE.RESTR.CAVITY>
0

>  <SCORE.RESTR.norm>
0

>  <SCORE.SYSTEM>
-0.591593

>  <SCORE.SYSTEM.CONST>
0

>  <SCORE.SYSTEM.DIHEDRAL>
0.86928

>  <SCORE.SYSTEM.VDW>
-1.02623

>  <SCORE.SYSTEM.norm>
-0.0184873

>  <SCORE.heavy>
32

>  <SCORE.norm>
-0.491725

$$$$
Forsythoside_E.pdb
  RxDock  02242110583D
librxdock.so/0.1.0
 40 42  0  0  0  0  0  0  0  0999 V2000
  -48.4226   -2.3725   15.3952 O   0  0  0  0  0  0
  -46.6413   -0.5992   16.5065 O   0  0  0  0  0  0
  -44.3922   -0.5072   17.2572 O   0  0  0  0  0  0
  -47.4158    0.3416   13.1522 O   0  0  0  0  0  0
  -50.4054   -3.5822   15.6237 O   0  0  0  0  0  0
  -50.3002    0.5372   13.1872 O   0  0  0  0  0  0
  -51.5114   -2.1352   13.4584 O   0  0  0  0  0  0
  -45.0337    2.0481   18.4052 O   0  0  0  0  0  0
  -46.4619    0.9664   20.5352 O   0  0  0  0  0  0
  -45.2221   -1.5997   20.6785 O   0  0  0  0  0  0
  -53.7787   -3.4036   19.5853 O   0  0  0  0  0  0
  -52.3580   -4.4910   21.7123 O   0  0  0  0  0  0
  -47.5555   -1.6251   14.5402 C   0  0  0  0  0  0
  -48.2595   -0.3509   14.0685 C   0  0  0  0  0  0
  -49.5851   -0.6840   13.3835 C   0  0  0  0  0  0
  -50.4246   -1.6342   14.2368 C   0  0  0  0  0  0
  -46.0291    1.0543   18.1556 C   0  0  0  0  0  0
  -45.5761    0.2355   16.9480 C   0  0  0  0  0  0
  -46.1971    0.1627   19.3874 C   0  0  0  0  0  0
  -44.9397   -0.6706   19.6362 C   0  0  0  0  0  0
  -49.5974   -2.8229   14.7238 C   0  0  0  0  0  0
  -46.2885   -1.3121   15.3295 C   0  0  0  0  0  0
  -44.5392   -1.4149   18.3547 C   0  0  0  0  0  0
  -43.2071   -2.1451   18.5098 C   0  0  0  0  0  0
  -49.8692   -4.8797   15.8291 C   0  0  0  0  0  0
  -50.9488   -5.7998   16.3876 C   0  0  0  0  0  0
  -51.3266   -5.4476   17.8054 C   0  0  0  0  0  0
  -52.3883   -4.5772   18.0489 C   0  0  0  0  0  0
  -50.6137   -5.9951   18.8731 C   0  0  0  0  0  0
  -52.7383   -4.2536   19.3600 C   0  0  0  0  0  0
  -50.9637   -5.6702   20.1835 C   0  0  0  0  0  0
  -52.0254   -4.7998   20.4271 C   0  0  0  0  0  0
  -46.5323    0.4126   13.5522 H   0  0  0  0  0  0
  -51.1180    0.3346   12.7011 H   0  0  0  0  0  0
  -51.9985   -2.7799   14.0003 H   0  0  0  0  0  0
  -45.0362    2.6626   17.6521 H   0  0  0  0  0  0
  -46.6447    0.3656   21.2780 H   0  0  0  0  0  0
  -45.4101   -1.0960   21.4891 H   0  0  0  0  0  0
  -54.1337   -3.1041   18.7306 H   0  0  0  0  0  0
  -53.0802   -3.8395   21.7045 H   0  0  0  0  0  0
  1 13  1  0  0  0
  1 21  1  0  0  0
  2 18  1  0  0  0
  2 22  1  0  0  0
  3 18  1  0  0  0
  3 23  1  0  0  0
  4 14  1  0  0  0
  4 33  1  0  0  0
  5 21  1  0  0  0
  5 25  1  0  0  0
  6 15  1  0  0  0
  6 34  1  0  0  0
  7 16  1  0  0  0
  7 35  1  0  0  0
  8 17  1  0  0  0
  8 36  1  0  0  0
  9 19  1  0  0  0
  9 37  1  0  0  0
 10 20  1  0  0  0
 10 38  1  0  0  0
 11 30  1  0  0  0
 11 39  1  0  0  0
 12 32  1  0  0  0
 12 40  1  0  0  0
 13 14  1  0  0  0
 13 22  1  0  0  0
 14 15  1  0  0  0
 15 16  1  0  0  0
 16 21  1  0  0  0
 17 18  1  0  0  0
 19 17  1  0  0  0
 20 19  1  0  0  0
 23 20  1  0  0  0
 23 24  1  0  0  0
 25 26  1  0  0  0
 26 27  1  0  0  0
 27 28  2  0  0  0
 27 29  1  0  0  0
 28 30  1  0  0  0
 29 31  2  0  0  0
 30 32  2  0  0  0
 31 32  1  0  0  0
M  END
>  <CHROM.0>
168.79274572,-178.54228619,55.14631055

>  <CHROM.1>
-60.29289820,-152.90339035,-49.24508311,-75.92494642,-161.13361668,176.46725723
176.41739319,66.30033240,174.79545201,-63.54858749,-1.83251025,-3.17875905
-57.66187443,-69.80756141,92.57355281,-48.55487836,-2.01281684,17.16552599
0.26751304,-0.56298081,-1.25446933

>  <Name>
Forsythoside_E.pdb

>  <RI>
-1.06433e+09

>  <Rbt.Current_Directory>
/root/miniconda3/envs/rdock/share/rxdock-2013.1.1_148c5bd1-0/data/ligands/prepped_ligands/Forsythoside_E

>  <Rbt.Executable>
rbdock/0.1.0

>  <Rbt.Library>
librxdock.so/0.1.0

>  <Rbt.Parameter_File>
/root/miniconda3/envs/rdock/share/rxdock-2013.1.1_148c5bd1-0/data/scripts/dock.prm

>  <Rbt.Receptor>
def.prm

>  <SCORE>
-15.0322

>  <SCORE.INTER>
-16.389

>  <SCORE.INTER.CONST>
1

>  <SCORE.INTER.POLAR>
-2.144

>  <SCORE.INTER.REPUL>
0.0203922

>  <SCORE.INTER.ROT>
7

>  <SCORE.INTER.VDW>
-21.6013

>  <SCORE.INTER.norm>
-0.512156

>  <SCORE.INTRA>
2.17974

>  <SCORE.INTRA.DIHEDRAL>
4.17787

>  <SCORE.INTRA.DIHEDRAL.0>
3.93665

>  <SCORE.INTRA.POLAR>
-0.167324

>  <SCORE.INTRA.POLAR.0>
0

>  <SCORE.INTRA.REPUL>
0

>  <SCORE.INTRA.REPUL.0>
0

>  <SCORE.INTRA.VDW>
0.659704

>  <SCORE.INTRA.VDW.0>
-1.0842

>  <SCORE.INTRA.norm>
0.0681167

>  <SCORE.RESTR>
0

>  <SCORE.RESTR.CAVITY>
0

>  <SCORE.RESTR.norm>
0

>  <SCORE.SYSTEM>
-0.822951

>  <SCORE.SYSTEM.CONST>
0

>  <SCORE.SYSTEM.DIHEDRAL>
0.381332

>  <SCORE.SYSTEM.VDW>
-1.01362

>  <SCORE.SYSTEM.norm>
-0.0257172

>  <SCORE.heavy>
32

>  <SCORE.norm>
-0.469756

$$$$
Forsythoside_E.pdb
  RxDock  02242110583D
librxdock.so/0.1.0
 40 42  0  0  0  0  0  0  0  0999 V2000
  -48.8556   -2.1945   16.8767 O   0  0  0  0  0  0
  -49.9232   -4.7308   18.1872 O   0  0  0  0  0  0
  -49.0736   -6.9087   18.5939 O   0  0  0  0  0  0
  -49.4124   -4.6773   14.2430 O   0  0  0  0  0  0
  -48.7563    0.1372   16.8569 O   0  0  0  0  0  0
  -48.4247   -2.3770   12.7965 O   0  0  0  0  0  0
  -49.3246    0.1154   14.0852 O   0  0  0  0  0  0
  -50.0209   -6.6156   21.2913 O   0  0  0  0  0  0
  -52.6937   -6.9981   20.6156 O   0  0  0  0  0  0
  -52.3620   -8.5348   18.2343 O   0  0  0  0  0  0
  -43.0381   -1.6632   19.3548 O   0  0  0  0  0  0
  -41.4345    0.6055   19.4363 O   0  0  0  0  0  0
  -49.3687   -3.3866   16.2792 C   0  0  0  0  0  0
  -48.8281   -3.5304   14.8548 C   0  0  0  0  0  0
  -49.1545   -2.2907   14.0217 C   0  0  0  0  0  0
  -48.7625   -1.0107   14.7590 C   0  0  0  0  0  0
  -50.5856   -5.8833   20.2024 C   0  0  0  0  0  0
  -49.4828   -5.6632   19.1684 C   0  0  0  0  0  0
  -51.7529   -6.6652   19.5971 C   0  0  0  0  0  0
  -51.2633   -7.9485   18.9258 C   0  0  0  0  0  0
  -49.2804   -1.0154   16.1964 C   0  0  0  0  0  0
  -48.9546   -4.5592   17.1623 C   0  0  0  0  0  0
  -50.1269   -7.6290   17.9444 C   0  0  0  0  0  0
  -49.5049   -8.8942   17.3578 C   0  0  0  0  0  0
  -47.3680   -0.0024   17.1144 C   0  0  0  0  0  0
  -46.9238    1.0501   18.1237 C   0  0  0  0  0  0
  -45.4614    0.9277   18.4752 C   0  0  0  0  0  0
  -44.9141   -0.3230   18.7587 C   0  0  0  0  0  0
  -44.6564    2.0672   18.5145 C   0  0  0  0  0  0
  -43.5617   -0.4356   19.0816 C   0  0  0  0  0  0
  -43.3045    1.9537   18.8384 C   0  0  0  0  0  0
  -42.7573    0.7030   19.1220 C   0  0  0  0  0  0
  -48.9642   -4.8255   13.3928 H   0  0  0  0  0  0
  -48.8128   -1.7446   12.1676 H   0  0  0  0  0  0
  -48.8922    0.1945   13.2174 H   0  0  0  0  0  0
  -49.7401   -7.4811   20.9494 H   0  0  0  0  0  0
  -52.2789   -7.6629   21.1920 H   0  0  0  0  0  0
  -52.6440   -7.9177   17.5372 H   0  0  0  0  0  0
  -43.6168   -2.3461   18.9740 H   0  0  0  0  0  0
  -41.1813    1.3709   19.9803 H   0  0  0  0  0  0
  1 13  1  0  0  0
  1 21  1  0  0  0
  2 18  1  0  0  0
  2 22  1  0  0  0
  3 18  1  0  0  0
  3 23  1  0  0  0
  4 14  1  0  0  0
  4 33  1  0  0  0
  5 21  1  0  0  0
  5 25  1  0  0  0
  6 15  1  0  0  0
  6 34  1  0  0  0
  7 16  1  0  0  0
  7 35  1  0  0  0
  8 17  1  0  0  0
  8 36  1  0  0  0
  9 19  1  0  0  0
  9 37  1  0  0  0
 10 20  1  0  0  0
 10 38  1  0  0  0
 11 30  1  0  0  0
 11 39  1  0  0  0
 12 32  1  0  0  0
 12 40  1  0  0  0
 13 14  1  0  0  0
 13 22  1  0  0  0
 14 15  1  0  0  0
 15 16  1  0  0  0
 16 21  1  0  0  0
 17 18  1  0  0  0
 19 17  1  0  0  0
 20 19  1  0  0  0
 23 20  1  0  0  0
 23 24  1  0  0  0
 25 26  1  0  0  0
 26 27  1  0  0  0
 27 28  2  0  0  0
 27 29  1  0  0  0
 28 30  1  0  0  0
 29 31  2  0  0  0
 30 32  2  0  0  0
 31 32  1  0  0  0
M  END
>  <CHROM.0>
66.39890506,-61.21227315,57.41417943

>  <CHROM.1>
-52.90548543,-170.38109388,-171.95057910,48.40897627,-165.17505418,163.93600341
-66.95065177,-63.12456151,-69.56967231,63.18731286,20.58467915,-142.19573300
86.54558825,178.17464146,-45.53476728,-48.17718579,-3.11111132,17.63080649
0.55287212,-0.72662238,-0.88852893

>  <Name>
Forsythoside_E.pdb

>  <RI>
-1.06433e+09

>  <Rbt.Current_Directory>
/root/miniconda3/envs/rdock/share/rxdock-2013.1.1_148c5bd1-0/data/ligands/prepped_ligands/Forsythoside_E

>  <Rbt.Executable>
rbdock/0.1.0

>  <Rbt.Library>
librxdock.so/0.1.0

>  <Rbt.Parameter_File>
/root/miniconda3/envs/rdock/share/rxdock-2013.1.1_148c5bd1-0/data/scripts/dock.prm

>  <Rbt.Receptor>
def.prm

>  <SCORE>
-4.61135

>  <SCORE.INTER>
-9.7001

>  <SCORE.INTER.CONST>
1

>  <SCORE.INTER.POLAR>
-1.01866

>  <SCORE.INTER.REPUL>
0.194702

>  <SCORE.INTER.ROT>
7

>  <SCORE.INTER.VDW>
-19.6102

>  <SCORE.INTER.norm>
-0.303128

>  <SCORE.INTRA>
6.07204

>  <SCORE.INTRA.DIHEDRAL>
6.08536

>  <SCORE.INTRA.DIHEDRAL.0>
3.93665

>  <SCORE.INTRA.POLAR>
0

>  <SCORE.INTRA.POLAR.0>
0

>  <SCORE.INTRA.REPUL>
0

>  <SCORE.INTRA.REPUL.0>
0

>  <SCORE.INTRA.VDW>
3.02937

>  <SCORE.INTRA.VDW.0>
-1.0842

>  <SCORE.INTRA.norm>
0.189751

>  <SCORE.RESTR>
0

>  <SCORE.RESTR.CAVITY>
0

>  <SCORE.RESTR.norm>
0

>  <SCORE.SYSTEM>
-0.9833

>  <SCORE.SYSTEM.CONST>
0

>  <SCORE.SYSTEM.DIHEDRAL>
0.121467

>  <SCORE.SYSTEM.VDW>
-1.04403

>  <SCORE.SYSTEM.norm>
-0.0307281

>  <SCORE.heavy>
32

>  <SCORE.norm>
-0.144105

$$$$
Forsythoside_E.pdb
  RxDock  02242110583D
librxdock.so/0.1.0
 40 42  0  0  0  0  0  0  0  0999 V2000
  -48.4609   -3.3598   16.3425 O   0  0  0  0  0  0
  -45.2096   -2.0888   17.0567 O   0  0  0  0  0  0
  -44.9589   -1.8907   19.4080 O   0  0  0  0  0  0
  -45.6397   -1.7037   14.6967 O   0  0  0  0  0  0
  -50.6147   -3.9014   15.6249 O   0  0  0  0  0  0
  -47.9316   -0.7568   13.2102 O   0  0  0  0  0  0
  -50.0051   -2.8459   13.0715 O   0  0  0  0  0  0
  -42.2025   -1.2458   18.9126 O   0  0  0  0  0  0
  -42.7490    1.3349   18.0251 O   0  0  0  0  0  0
  -45.2185    1.7862   19.3818 O   0  0  0  0  0  0
  -51.8610   -8.4991   19.0477 O   0  0  0  0  0  0
  -52.3069   -6.5177   20.9452 O   0  0  0  0  0  0
  -47.0959   -3.1216   15.9939 C   0  0  0  0  0  0
  -46.9938   -1.8808   15.1042 C   0  0  0  0  0  0
  -47.8801   -2.0248   13.8667 C   0  0  0  0  0  0
  -49.2950   -2.4588   14.2479 C   0  0  0  0  0  0
  -43.2210   -1.0371   17.9329 C   0  0  0  0  0  0
  -44.3015   -2.0944   18.1529 C   0  0  0  0  0  0
  -43.7997    0.3721   18.0736 C   0  0  0  0  0  0
  -44.5598    0.5231   19.3915 C   0  0  0  0  0  0
  -49.2730   -3.6485   15.2064 C   0  0  0  0  0  0
  -46.3121   -2.9532   17.2915 C   0  0  0  0  0  0
  -45.5848   -0.6099   19.5411 C   0  0  0  0  0  0
  -46.2668   -0.5876   20.9072 C   0  0  0  0  0  0
  -51.2141   -4.9245   14.8457 C   0  0  0  0  0  0
  -52.5774   -5.2816   15.4269 C   0  0  0  0  0  0
  -52.5057   -5.6152   16.8968 C   0  0  0  0  0  0
  -52.2155   -6.9169   17.3036 C   0  0  0  0  0  0
  -52.7283   -4.6195   17.8492 C   0  0  0  0  0  0
  -52.1473   -7.2242   18.6627 C   0  0  0  0  0  0
  -52.6609   -4.9278   19.2077 C   0  0  0  0  0  0
  -52.3707   -6.2295   19.6145 C   0  0  0  0  0  0
  -45.6089   -0.9595   14.0715 H   0  0  0  0  0  0
  -47.0522   -0.5728   12.8374 H   0  0  0  0  0  0
  -49.9445   -2.1177   12.4293 H   0  0  0  0  0  0
  -41.7705   -2.0932   18.7119 H   0  0  0  0  0  0
  -43.1594    2.2168   18.0204 H   0  0  0  0  0  0
  -44.5409    2.4806   19.4509 H   0  0  0  0  0  0
  -51.7454   -8.5198   20.0134 H   0  0  0  0  0  0
  -52.6253   -5.7503   21.4508 H   0  0  0  0  0  0
  1 13  1  0  0  0
  1 21  1  0  0  0
  2 18  1  0  0  0
  2 22  1  0  0  0
  3 18  1  0  0  0
  3 23  1  0  0  0
  4 14  1  0  0  0
  4 33  1  0  0  0
  5 21  1  0  0  0
  5 25  1  0  0  0
  6 15  1  0  0  0
  6 34  1  0  0  0
  7 16  1  0  0  0
  7 35  1  0  0  0
  8 17  1  0  0  0
  8 36  1  0  0  0
  9 19  1  0  0  0
  9 37  1  0  0  0
 10 20  1  0  0  0
 10 38  1  0  0  0
 11 30  1  0  0  0
 11 39  1  0  0  0
 12 32  1  0  0  0
 12 40  1  0  0  0
 13 14  1  0  0  0
 13 22  1  0  0  0
 14 15  1  0  0  0
 15 16  1  0  0  0
 16 21  1  0  0  0
 17 18  1  0  0  0
 19 17  1  0  0  0
 20 19  1  0  0  0
 23 20  1  0  0  0
 23 24  1  0  0  0
 25 26  1  0  0  0
 26 27  1  0  0  0
 27 28  2  0  0  0
 27 29  1  0  0  0
 28 30  1  0  0  0
 29 31  2  0  0  0
 30 32  2  0  0  0
 31 32  1  0  0  0
M  END
>  <CHROM.0>
49.39574083,66.85797059,62.64526498

>  <CHROM.1>
-49.88926265,-168.86322404,175.08803490,-143.11363161,173.20959702,68.72309373
-53.15056588,67.22932316,173.99744214,-69.84817367,173.20063667,-171.08044919
-150.55861669,-52.99071292,-86.65276364,-48.02106104,-2.88741351,17.21751621
3.06589397,0.62303172,1.80156243

>  <Name>
Forsythoside_E.pdb

>  <RI>
-1.06433e+09

>  <Rbt.Current_Directory>
/root/miniconda3/envs/rdock/share/rxdock-2013.1.1_148c5bd1-0/data/ligands/prepped_ligands/Forsythoside_E

>  <Rbt.Executable>
rbdock/0.1.0

>  <Rbt.Library>
librxdock.so/0.1.0

>  <Rbt.Parameter_File>
/root/miniconda3/envs/rdock/share/rxdock-2013.1.1_148c5bd1-0/data/scripts/dock.prm

>  <Rbt.Receptor>
def.prm

>  <SCORE>
-14.0656

>  <SCORE.INTER>
-18.7152

>  <SCORE.INTER.CONST>
1

>  <SCORE.INTER.POLAR>
-2.86113

>  <SCORE.INTER.REPUL>
0

>  <SCORE.INTER.ROT>
7

>  <SCORE.INTER.VDW>
-21.3874

>  <SCORE.INTER.norm>
-0.584851

>  <SCORE.INTRA>
5.41884

>  <SCORE.INTRA.DIHEDRAL>
7.57856

>  <SCORE.INTRA.DIHEDRAL.0>
3.93665

>  <SCORE.INTRA.POLAR>
-0.136883

>  <SCORE.INTRA.POLAR.0>
0

>  <SCORE.INTRA.REPUL>
0

>  <SCORE.INTRA.REPUL.0>
0

>  <SCORE.INTRA.VDW>
2.09496

>  <SCORE.INTRA.VDW.0>
-1.0842

>  <SCORE.INTRA.norm>
0.169339

>  <SCORE.RESTR>
0

>  <SCORE.RESTR.CAVITY>
0

>  <SCORE.RESTR.norm>
0

>  <SCORE.SYSTEM>
-0.769204

>  <SCORE.SYSTEM.CONST>
0

>  <SCORE.SYSTEM.DIHEDRAL>
0.522729

>  <SCORE.SYSTEM.POLAR>
-0.00685999

>  <SCORE.SYSTEM.VDW>
-1.00725

>  <SCORE.SYSTEM.norm>
-0.0240376

>  <SCORE.heavy>
32

>  <SCORE.norm>
-0.43955

$$$$
Forsythoside_E.pdb
  RxDock  02242110583D
librxdock.so/0.1.0
 40 42  0  0  0  0  0  0  0  0999 V2000
  -50.9832   -1.4982   17.0631 O   0  0  0  0  0  0
  -48.2654    0.0067   18.0445 O   0  0  0  0  0  0
  -46.6930   -0.0268   16.2677 O   0  0  0  0  0  0
  -48.7148   -0.4081   14.4030 O   0  0  0  0  0  0
  -52.5853   -3.1914   17.1806 O   0  0  0  0  0  0
  -50.8422   -1.7377   12.9657 O   0  0  0  0  0  0
  -51.9106   -3.9815   14.5489 O   0  0  0  0  0  0
  -44.8515    1.2488   18.0680 O   0  0  0  0  0  0
  -44.3450   -1.0687   19.5238 O   0  0  0  0  0  0
  -44.9482   -3.0186   17.5296 O   0  0  0  0  0  0
  -51.4789   -9.1477   20.8127 O   0  0  0  0  0  0
  -49.5211  -10.0124   19.0395 O   0  0  0  0  0  0
  -49.7661   -1.0253   16.4833 C   0  0  0  0  0  0
  -49.9570   -0.7992   14.9819 C   0  0  0  0  0  0
  -50.4548   -2.0734   14.2993 C   0  0  0  0  0  0
  -51.6507   -2.6674   15.0427 C   0  0  0  0  0  0
  -45.9439    0.4544   18.5332 C   0  0  0  0  0  0
  -47.0730    0.5723   17.5109 C   0  0  0  0  0  0
  -45.5007   -1.0013   18.6912 C   0  0  0  0  0  0
  -45.1796   -1.6267   17.3336 C   0  0  0  0  0  0
  -51.3805   -2.7654   16.5434 C   0  0  0  0  0  0
  -49.3823    0.2624   17.2049 C   0  0  0  0  0  0
  -46.3517   -1.4139   16.3653 C   0  0  0  0  0  0
  -46.0210   -1.8912   14.9530 C   0  0  0  0  0  0
  -52.5164   -4.5587   17.5530 C   0  0  0  0  0  0
  -51.5290   -4.7298   18.7018 C   0  0  0  0  0  0
  -50.9954   -6.1381   18.7958 C   0  0  0  0  0  0
  -51.4843   -7.0060   19.7715 C   0  0  0  0  0  0
  -50.0133   -6.5722   17.9041 C   0  0  0  0  0  0
  -50.9920   -8.3085   19.8564 C   0  0  0  0  0  0
  -49.5209   -7.8743   17.9905 C   0  0  0  0  0  0
  -50.0099   -8.7422   18.9662 C   0  0  0  0  0  0
  -48.8674   -0.2242   13.4603 H   0  0  0  0  0  0
  -50.0349   -1.5802   12.4463 H   0  0  0  0  0  0
  -52.7252   -4.3063   14.9700 H   0  0  0  0  0  0
  -44.5467    0.8666   17.2278 H   0  0  0  0  0  0
  -44.5989   -0.7437   20.4047 H   0  0  0  0  0  0
  -45.7728   -3.4187   17.8555 H   0  0  0  0  0  0
  -50.7330   -9.5659   21.2765 H   0  0  0  0  0  0
  -50.0043  -10.4981   19.7298 H   0  0  0  0  0  0
  1 13  1  0  0  0
  1 21  1  0  0  0
  2 18  1  0  0  0
  2 22  1  0  0  0
  3 18  1  0  0  0
  3 23  1  0  0  0
  4 14  1  0  0  0
  4 33  1  0  0  0
  5 21  1  0  0  0
  5 25  1  0  0  0
  6 15  1  0  0  0
  6 34  1  0  0  0
  7 16  1  0  0  0
  7 35  1  0  0  0
  8 17  1  0  0  0
  8 36  1  0  0  0
  9 19  1  0  0  0
  9 37  1  0  0  0
 10 20  1  0  0  0
 10 38  1  0  0  0
 11 30  1  0  0  0
 11 39  1  0  0  0
 12 32  1  0  0  0
 12 40  1  0  0  0
 13 14  1  0  0  0
 13 22  1  0  0  0
 14 15  1  0  0  0
 15 16  1  0  0  0
 16 21  1  0  0  0
 17 18  1  0  0  0
 19 17  1  0  0  0
 20 19  1  0  0  0
 23 20  1  0  0  0
 23 24  1  0  0  0
 25 26  1  0  0  0
 26 27  1  0  0  0
 27 28  2  0  0  0
 27 29  1  0  0  0
 28 30  1  0  0  0
 29 31  2  0  0  0
 30 32  2  0  0  0
 31 32  1  0  0  0
M  END
>  <CHROM.0>
45.29021645,-176.17002050,-55.33881281

>  <CHROM.1>
-64.62076779,106.49690488,-177.05612080,-135.40610489,70.03742722,73.07960918
-174.46867249,-63.27244333,63.32433301,63.43995794,-131.07576148,3.54854415
107.57149983,-157.55384223,-102.95841164,-49.04196025,-3.08926323,17.24569681
0.97790054,-0.47551638,-0.55822335

>  <Name>
Forsythoside_E.pdb

>  <RI>
-1.06433e+09

>  <Rbt.Current_Directory>
/root/miniconda3/envs/rdock/share/rxdock-2013.1.1_148c5bd1-0/data/ligands/prepped_ligands/Forsythoside_E

>  <Rbt.Executable>
rbdock/0.1.0

>  <Rbt.Library>
librxdock.so/0.1.0

>  <Rbt.Parameter_File>
/root/miniconda3/envs/rdock/share/rxdock-2013.1.1_148c5bd1-0/data/scripts/dock.prm

>  <Rbt.Receptor>
def.prm

>  <SCORE>
-2.31394

>  <SCORE.INTER>
-11.3453

>  <SCORE.INTER.CONST>
1

>  <SCORE.INTER.POLAR>
-0.731185

>  <SCORE.INTER.REPUL>
0

>  <SCORE.INTER.ROT>
7

>  <SCORE.INTER.VDW>
-21.2593

>  <SCORE.INTER.norm>
-0.35454

>  <SCORE.INTRA>
9.70023

>  <SCORE.INTRA.DIHEDRAL>
20.2288

>  <SCORE.INTRA.DIHEDRAL.0>
3.93665

>  <SCORE.INTRA.POLAR>
0

>  <SCORE.INTRA.POLAR.0>
0

>  <SCORE.INTRA.REPUL>
0

>  <SCORE.INTRA.REPUL.0>
0

>  <SCORE.INTRA.VDW>
-0.414148

>  <SCORE.INTRA.VDW.0>
-1.0842

>  <SCORE.INTRA.norm>
0.303132

>  <SCORE.RESTR>
0

>  <SCORE.RESTR.CAVITY>
0

>  <SCORE.RESTR.norm>
0

>  <SCORE.SYSTEM>
-0.668881

>  <SCORE.SYSTEM.CONST>
0

>  <SCORE.SYSTEM.DIHEDRAL>
0.63974

>  <SCORE.SYSTEM.POLAR>
-0.0108651

>  <SCORE.SYSTEM.VDW>
-0.95181

>  <SCORE.SYSTEM.norm>
-0.0209025

>  <SCORE.heavy>
32

>  <SCORE.norm>
-0.0723105

$$$$
