Forsythoside_E.pdb
  RxDock  02242109473D
librxdock.so/0.1.0
 40 42  0  0  0  0  0  0  0  0999 V2000
  -47.4255   -1.5397   16.2249 O   0  0  0  0  0  0
  -49.4576   -2.9780   17.6139 O   0  0  0  0  0  0
  -50.2672   -5.1032   18.2911 O   0  0  0  0  0  0
  -50.7683   -0.0605   16.4450 O   0  0  0  0  0  0
  -45.7676   -1.4648   14.5838 O   0  0  0  0  0  0
  -50.2688   -0.1656   13.5992 O   0  0  0  0  0  0
  -47.4057    0.2487   13.0391 O   0  0  0  0  0  0
  -51.0844   -3.8476   20.7436 O   0  0  0  0  0  0
  -53.2778   -2.5699   19.6021 O   0  0  0  0  0  0
  -53.7635   -4.3343   17.4127 O   0  0  0  0  0  0
  -46.1917   -1.2592   20.8903 O   0  0  0  0  0  0
  -43.6619   -1.8465   21.8804 O   0  0  0  0  0  0
  -48.5427   -0.8987   16.8431 C   0  0  0  0  0  0
  -49.6929   -0.7747   15.8413 C   0  0  0  0  0  0
  -49.2393   -0.0369   14.5814 C   0  0  0  0  0  0
  -47.9382   -0.6241   14.0354 C   0  0  0  0  0  0
  -50.9203   -3.1122   19.5298 C   0  0  0  0  0  0
  -49.8333   -3.8050   18.7098 C   0  0  0  0  0  0
  -52.2421   -3.0726   18.7607 C   0  0  0  0  0  0
  -52.6292   -4.4658   18.2643 C   0  0  0  0  0  0
  -46.8934   -0.7839   15.1389 C   0  0  0  0  0  0
  -48.9379   -1.7326   18.0575 C   0  0  0  0  0  0
  -51.4583   -5.0954   17.4966 C   0  0  0  0  0  0
  -51.7428   -6.5442   17.1070 C   0  0  0  0  0  0
  -44.8746   -1.8971   15.5981 C   0  0  0  0  0  0
  -44.3656   -0.6932   16.3825 C   0  0  0  0  0  0
  -44.1818   -0.9988   17.8487 C   0  0  0  0  0  0
  -45.2806   -0.9871   18.7070 C   0  0  0  0  0  0
  -42.9114   -1.2951   18.3450 C   0  0  0  0  0  0
  -45.1103   -1.2718   20.0621 C   0  0  0  0  0  0
  -42.7419   -1.5786   19.7000 C   0  0  0  0  0  0
  -43.8407   -1.5669   20.5583 C   0  0  0  0  0  0
  -51.0021   -0.5132   17.2733 H   0  0  0  0  0  0
  -51.0951    0.1791   13.9795 H   0  0  0  0  0  0
  -48.0420    0.2917   12.3045 H   0  0  0  0  0  0
  -51.8146   -3.4392   21.2384 H   0  0  0  0  0  0
  -54.0875   -2.5094   19.0663 H   0  0  0  0  0  0
  -53.5185   -3.7549   16.6708 H   0  0  0  0  0  0
  -46.8784   -0.6875   20.5058 H   0  0  0  0  0  0
  -42.7612   -2.1889   22.0123 H   0  0  0  0  0  0
  1 13  1  0  0  0
  1 21  1  0  0  0
  2 18  1  0  0  0
  2 22  1  0  0  0
  3 18  1  0  0  0
  3 23  1  0  0  0
  4 14  1  0  0  0
  4 33  1  0  0  0
  5 21  1  0  0  0
  5 25  1  0  0  0
  6 15  1  0  0  0
  6 34  1  0  0  0
  7 16  1  0  0  0
  7 35  1  0  0  0
  8 17  1  0  0  0
  8 36  1  0  0  0
  9 19  1  0  0  0
  9 37  1  0  0  0
 10 20  1  0  0  0
 10 38  1  0  0  0
 11 30  1  0  0  0
 11 39  1  0  0  0
 12 32  1  0  0  0
 12 40  1  0  0  0
 13 14  1  0  0  0
 13 22  1  0  0  0
 14 15  1  0  0  0
 15 16  1  0  0  0
 16 21  1  0  0  0
 17 18  1  0  0  0
 19 17  1  0  0  0
 20 19  1  0  0  0
 23 20  1  0  0  0
 23 24  1  0  0  0
 25 26  1  0  0  0
 26 27  1  0  0  0
 27 28  2  0  0  0
 27 29  1  0  0  0
 28 30  1  0  0  0
 29 31  2  0  0  0
 30 32  2  0  0  0
 31 32  1  0  0  0
M  END
>  <CHROM.0>
-156.39830086,-58.25504964,-72.68493948

>  <CHROM.1>
-175.65844093,179.48938363,-54.85917412,-47.38593244,-60.18384915,56.44856532
-63.01309004,-176.46942874,176.69679390,59.70479574,-24.33686099,169.36058030
-67.80027767,144.03140727,-80.63392281,-48.33553091,-2.08010752,17.54196876
0.10506553,-0.31273907,-1.16189953

>  <Name>
Forsythoside_E.pdb

>  <RI>
-9.7037e+08

>  <Rbt.Current_Directory>
/root/miniconda3/envs/rdock/share/rxdock-2013.1.1_148c5bd1-0/data/ligands/prepped_ligands/Forsythoside_E

>  <Rbt.Executable>
rbdock/0.1.0

>  <Rbt.Library>
librxdock.so/0.1.0

>  <Rbt.Parameter_File>
/root/miniconda3/envs/rdock/share/rxdock-2013.1.1_148c5bd1-0/data/scripts/dock.prm

>  <Rbt.Receptor>
def.prm

>  <SCORE>
-8.67812

>  <SCORE.INTER>
-13.3128

>  <SCORE.INTER.CONST>
1

>  <SCORE.INTER.POLAR>
-3.01204

>  <SCORE.INTER.REPUL>
1.022

>  <SCORE.INTER.ROT>
7

>  <SCORE.INTER.VDW>
-20.5818

>  <SCORE.INTER.norm>
-0.416024

>  <SCORE.INTRA>
4.68968

>  <SCORE.INTRA.DIHEDRAL>
2.87052

>  <SCORE.INTRA.DIHEDRAL.0>
3.93665

>  <SCORE.INTRA.POLAR>
-0.040143

>  <SCORE.INTRA.POLAR.0>
0

>  <SCORE.INTRA.REPUL>
0

>  <SCORE.INTRA.REPUL.0>
0

>  <SCORE.INTRA.VDW>
3.3909

>  <SCORE.INTRA.VDW.0>
-1.0842

>  <SCORE.INTRA.norm>
0.146552

>  <SCORE.RESTR>
0

>  <SCORE.RESTR.CAVITY>
0

>  <SCORE.RESTR.norm>
0

>  <SCORE.SYSTEM>
-0.0550142

>  <SCORE.SYSTEM.CONST>
0

>  <SCORE.SYSTEM.DIHEDRAL>
1.60224

>  <SCORE.SYSTEM.VDW>
-0.856132

>  <SCORE.SYSTEM.norm>
-0.00171919

>  <SCORE.heavy>
32

>  <SCORE.norm>
-0.271191

$$$$
Forsythoside_E.pdb
  RxDock  02242109473D
librxdock.so/0.1.0
 40 42  0  0  0  0  0  0  0  0999 V2000
  -49.1509   -1.9075   16.5664 O   0  0  0  0  0  0
  -46.8843   -1.1245   17.1042 O   0  0  0  0  0  0
  -44.5469   -0.8146   17.3701 O   0  0  0  0  0  0
  -47.8731   -2.8673   13.2714 O   0  0  0  0  0  0
  -51.2729   -2.0133   17.5322 O   0  0  0  0  0  0
  -50.6954   -2.4530   12.8003 O   0  0  0  0  0  0
  -52.2610   -3.2252   15.1741 O   0  0  0  0  0  0
  -45.1542    1.8249   18.3310 O   0  0  0  0  0  0
  -46.0520    0.9410   20.8129 O   0  0  0  0  0  0
  -44.6084   -1.5141   20.9887 O   0  0  0  0  0  0
  -55.1084   -4.8616   16.0637 O   0  0  0  0  0  0
  -53.7352   -7.2680   15.8429 O   0  0  0  0  0  0
  -48.2268   -2.4462   15.6191 C   0  0  0  0  0  0
  -48.7633   -2.2525   14.1991 C   0  0  0  0  0  0
  -50.1533   -2.8726   14.0538 C   0  0  0  0  0  0
  -51.0789   -2.4249   15.1845 C   0  0  0  0  0  0
  -46.0971    0.7539   18.4003 C   0  0  0  0  0  0
  -45.8234   -0.1833   17.2254 C   0  0  0  0  0  0
  -45.9519    0.0159   19.7324 C   0  0  0  0  0  0
  -44.6081   -0.7087   19.8137 C   0  0  0  0  0  0
  -50.4077   -2.5810   16.5482 C   0  0  0  0  0  0
  -46.8928   -1.7350   15.8216 C   0  0  0  0  0  0
  -44.4059   -1.5844   18.5691 C   0  0  0  0  0  0
  -43.0154   -2.2143   18.5326 C   0  0  0  0  0  0
  -50.8817   -2.3907   18.8427 C   0  0  0  0  0  0
  -51.9447   -3.2947   19.4566 C   0  0  0  0  0  0
  -52.4257   -4.3518   18.4931 C   0  0  0  0  0  0
  -53.5585   -4.1218   17.7134 C   0  0  0  0  0  0
  -51.7349   -5.5594   18.3817 C   0  0  0  0  0  0
  -54.0015   -5.0987   16.8215 C   0  0  0  0  0  0
  -52.1791   -6.5360   17.4905 C   0  0  0  0  0  0
  -53.3119   -6.3060   16.7107 C   0  0  0  0  0  0
  -47.8534   -3.8209   13.4607 H   0  0  0  0  0  0
  -50.0007   -2.5411   12.1251 H   0  0  0  0  0  0
  -52.0015   -4.1487   15.3363 H   0  0  0  0  0  0
  -44.2655    1.4402   18.4159 H   0  0  0  0  0  0
  -46.9216    1.3723   20.7500 H   0  0  0  0  0  0
  -44.6762   -0.9241   21.7591 H   0  0  0  0  0  0
  -55.0552   -5.3931   15.2506 H   0  0  0  0  0  0
  -52.9604   -7.6729   15.4168 H   0  0  0  0  0  0
  1 13  1  0  0  0
  1 21  1  0  0  0
  2 18  1  0  0  0
  2 22  1  0  0  0
  3 18  1  0  0  0
  3 23  1  0  0  0
  4 14  1  0  0  0
  4 33  1  0  0  0
  5 21  1  0  0  0
  5 25  1  0  0  0
  6 15  1  0  0  0
  6 34  1  0  0  0
  7 16  1  0  0  0
  7 35  1  0  0  0
  8 17  1  0  0  0
  8 36  1  0  0  0
  9 19  1  0  0  0
  9 37  1  0  0  0
 10 20  1  0  0  0
 10 38  1  0  0  0
 11 30  1  0  0  0
 11 39  1  0  0  0
 12 32  1  0  0  0
 12 40  1  0  0  0
 13 14  1  0  0  0
 13 22  1  0  0  0
 14 15  1  0  0  0
 15 16  1  0  0  0
 16 21  1  0  0  0
 17 18  1  0  0  0
 19 17  1  0  0  0
 20 19  1  0  0  0
 23 20  1  0  0  0
 23 24  1  0  0  0
 25 26  1  0  0  0
 26 27  1  0  0  0
 27 28  2  0  0  0
 27 29  1  0  0  0
 28 30  1  0  0  0
 29 31  2  0  0  0
 30 32  2  0  0  0
 31 32  1  0  0  0
M  END
>  <CHROM.0>
-50.73588074,-61.52317320,41.12688301

>  <CHROM.1>
-74.32706763,-165.61955133,62.53849120,-73.30654107,-112.91934001,44.65589653
62.12906660,-61.62246043,59.31762015,-63.48005298,153.92514942,139.98049532
18.46249004,44.61269344,-93.79876350,-49.08689788,-2.48695841,17.14376796
-0.25376651,-0.51941739,-1.55383673

>  <Name>
Forsythoside_E.pdb

>  <RI>
-9.7037e+08

>  <Rbt.Current_Directory>
/root/miniconda3/envs/rdock/share/rxdock-2013.1.1_148c5bd1-0/data/ligands/prepped_ligands/Forsythoside_E

>  <Rbt.Executable>
rbdock/0.1.0

>  <Rbt.Library>
librxdock.so/0.1.0

>  <Rbt.Parameter_File>
/root/miniconda3/envs/rdock/share/rxdock-2013.1.1_148c5bd1-0/data/scripts/dock.prm

>  <Rbt.Receptor>
def.prm

>  <SCORE>
-11.9225

>  <SCORE.INTER>
-18.189

>  <SCORE.INTER.CONST>
1

>  <SCORE.INTER.POLAR>
-3.40107

>  <SCORE.INTER.REPUL>
0.111568

>  <SCORE.INTER.ROT>
7

>  <SCORE.INTER.VDW>
-19.5832

>  <SCORE.INTER.norm>
-0.568406

>  <SCORE.INTRA>
6.73037

>  <SCORE.INTRA.DIHEDRAL>
15.7141

>  <SCORE.INTRA.DIHEDRAL.0>
3.93665

>  <SCORE.INTRA.POLAR>
-0.023059

>  <SCORE.INTRA.POLAR.0>
0

>  <SCORE.INTRA.REPUL>
0.00462572

>  <SCORE.INTRA.REPUL.0>
0

>  <SCORE.INTRA.VDW>
-1.07143

>  <SCORE.INTRA.VDW.0>
-1.0842

>  <SCORE.INTRA.norm>
0.210324

>  <SCORE.RESTR>
0.00330345

>  <SCORE.RESTR.CAVITY>
0.00330345

>  <SCORE.RESTR.norm>
0.000103233

>  <SCORE.SYSTEM>
-0.467186

>  <SCORE.SYSTEM.CONST>
0

>  <SCORE.SYSTEM.DIHEDRAL>
1.03529

>  <SCORE.SYSTEM.VDW>
-0.984833

>  <SCORE.SYSTEM.norm>
-0.0145996

>  <SCORE.heavy>
32

>  <SCORE.norm>
-0.372579

$$$$
Forsythoside_E.pdb
  RxDock  02242109473D
librxdock.so/0.1.0
 40 42  0  0  0  0  0  0  0  0999 V2000
  -48.1535   -2.7834   15.7014 O   0  0  0  0  0  0
  -46.2316   -1.4515   17.0408 O   0  0  0  0  0  0
  -45.6143   -1.7294   19.3150 O   0  0  0  0  0  0
  -46.9230    0.0956   13.8020 O   0  0  0  0  0  0
  -50.2351   -3.8333   15.8111 O   0  0  0  0  0  0
  -49.7779    0.5382   13.9140 O   0  0  0  0  0  0
  -51.2219   -2.0300   13.8669 O   0  0  0  0  0  0
  -42.9025   -1.2675   18.4833 O   0  0  0  0  0  0
  -43.2488    1.4751   18.1594 O   0  0  0  0  0  0
  -45.4158    1.8929   19.9683 O   0  0  0  0  0  0
  -48.1153   -7.7846   17.1896 O   0  0  0  0  0  0
  -49.6308   -9.5182   18.7462 O   0  0  0  0  0  0
  -47.2288   -2.0123   14.9323 C   0  0  0  0  0  0
  -47.8190   -0.6313   14.6385 C   0  0  0  0  0  0
  -49.1738   -0.7563   13.9411 C   0  0  0  0  0  0
  -50.0892   -1.7301   14.6825 C   0  0  0  0  0  0
  -44.0205   -0.7800   17.7393 C   0  0  0  0  0  0
  -45.1797   -1.7521   17.9514 C   0  0  0  0  0  0
  -44.3923    0.6251   18.2164 C   0  0  0  0  0  0
  -44.9250    0.5942   19.6491 C   0  0  0  0  0  0
  -49.3685   -3.0394   15.0000 C   0  0  0  0  0  0
  -45.9335   -1.9153   15.7316 C   0  0  0  0  0  0
  -46.0496   -0.4437   19.7705 C   0  0  0  0  0  0
  -46.5146   -0.6171   21.2146 C   0  0  0  0  0  0
  -51.1732   -4.5455   15.0200 C   0  0  0  0  0  0
  -52.1407   -5.3003   15.9245 C   0  0  0  0  0  0
  -51.4683   -6.4241   16.6742 C   0  0  0  0  0  0
  -50.0870   -6.5930   16.5866 C   0  0  0  0  0  0
  -52.2297   -7.2934   17.4568 C   0  0  0  0  0  0
  -49.4657   -7.6309   17.2815 C   0  0  0  0  0  0
  -51.6078   -8.3315   18.1504 C   0  0  0  0  0  0
  -50.2266   -8.5004   18.0628 C   0  0  0  0  0  0
  -46.8050   -0.4083   12.9787 H   0  0  0  0  0  0
  -50.6378    0.4619   13.4657 H   0  0  0  0  0  0
  -51.7560   -1.2213   13.7833 H   0  0  0  0  0  0
  -42.1620   -0.6553   18.3363 H   0  0  0  0  0  0
  -43.5494    2.3833   18.3354 H   0  0  0  0  0  0
  -45.7614    1.8700   20.8773 H   0  0  0  0  0  0
  -47.9145   -8.7196   17.0117 H   0  0  0  0  0  0
  -48.6723   -9.3573   18.7814 H   0  0  0  0  0  0
  1 13  1  0  0  0
  1 21  1  0  0  0
  2 18  1  0  0  0
  2 22  1  0  0  0
  3 18  1  0  0  0
  3 23  1  0  0  0
  4 14  1  0  0  0
  4 33  1  0  0  0
  5 21  1  0  0  0
  5 25  1  0  0  0
  6 15  1  0  0  0
  6 34  1  0  0  0
  7 16  1  0  0  0
  7 35  1  0  0  0
  8 17  1  0  0  0
  8 36  1  0  0  0
  9 19  1  0  0  0
  9 37  1  0  0  0
 10 20  1  0  0  0
 10 38  1  0  0  0
 11 30  1  0  0  0
 11 39  1  0  0  0
 12 32  1  0  0  0
 12 40  1  0  0  0
 13 14  1  0  0  0
 13 22  1  0  0  0
 14 15  1  0  0  0
 15 16  1  0  0  0
 16 21  1  0  0  0
 17 18  1  0  0  0
 19 17  1  0  0  0
 20 19  1  0  0  0
 23 20  1  0  0  0
 23 24  1  0  0  0
 25 26  1  0  0  0
 26 27  1  0  0  0
 27 28  2  0  0  0
 27 29  1  0  0  0
 28 30  1  0  0  0
 29 31  2  0  0  0
 30 32  2  0  0  0
 31 32  1  0  0  0
M  END
>  <CHROM.0>
-69.01272732,174.49928462,59.97956874

>  <CHROM.1>
-159.78570476,160.67334846,59.62287671,-156.62618091,-175.97218367,179.66011809
-67.34429588,179.14952235,171.42344329,179.52224063,-132.47106348,15.27485108
-52.08166367,-67.99356915,5.76032640,-47.93556571,-2.81484914,16.89343035
2.55541241,0.72813430,2.54015980

>  <Name>
Forsythoside_E.pdb

>  <RI>
-9.7037e+08

>  <Rbt.Current_Directory>
/root/miniconda3/envs/rdock/share/rxdock-2013.1.1_148c5bd1-0/data/ligands/prepped_ligands/Forsythoside_E

>  <Rbt.Executable>
rbdock/0.1.0

>  <Rbt.Library>
librxdock.so/0.1.0

>  <Rbt.Parameter_File>
/root/miniconda3/envs/rdock/share/rxdock-2013.1.1_148c5bd1-0/data/scripts/dock.prm

>  <Rbt.Receptor>
def.prm

>  <SCORE>
-14.3957

>  <SCORE.INTER>
-19.9226

>  <SCORE.INTER.CONST>
1

>  <SCORE.INTER.POLAR>
-2.60766

>  <SCORE.INTER.REPUL>
0.231955

>  <SCORE.INTER.ROT>
7

>  <SCORE.INTER.VDW>
-24.6163

>  <SCORE.INTER.norm>
-0.622581

>  <SCORE.INTRA>
6.17799

>  <SCORE.INTRA.DIHEDRAL>
6.85529

>  <SCORE.INTRA.DIHEDRAL.0>
3.93665

>  <SCORE.INTRA.POLAR>
-0.0167454

>  <SCORE.INTRA.POLAR.0>
0

>  <SCORE.INTRA.REPUL>
0

>  <SCORE.INTRA.REPUL.0>
0

>  <SCORE.INTRA.VDW>
2.80728

>  <SCORE.INTRA.VDW.0>
-1.0842

>  <SCORE.INTRA.norm>
0.193062

>  <SCORE.RESTR>
0.20782

>  <SCORE.RESTR.CAVITY>
0.20782

>  <SCORE.RESTR.norm>
0.00649437

>  <SCORE.SYSTEM>
-0.858925

>  <SCORE.SYSTEM.CONST>
0

>  <SCORE.SYSTEM.DIHEDRAL>
0.351647

>  <SCORE.SYSTEM.POLAR>
-0.00100628

>  <SCORE.SYSTEM.VDW>
-1.03133

>  <SCORE.SYSTEM.norm>
-0.0268414

>  <SCORE.heavy>
32

>  <SCORE.norm>
-0.449866

$$$$
Forsythoside_E.pdb
  RxDock  02242109483D
librxdock.so/0.1.0
 40 42  0  0  0  0  0  0  0  0999 V2000
  -48.2740   -2.4765   16.4281 O   0  0  0  0  0  0
  -49.3776   -4.3965   17.7452 O   0  0  0  0  0  0
  -48.5365   -6.0922   19.1761 O   0  0  0  0  0  0
  -51.8330   -2.3722   15.5721 O   0  0  0  0  0  0
  -46.3500   -1.8345   15.2734 O   0  0  0  0  0  0
  -50.5244   -2.3790   12.9941 O   0  0  0  0  0  0
  -47.9639   -0.9273   13.1339 O   0  0  0  0  0  0
  -51.2602   -6.5891   19.9466 O   0  0  0  0  0  0
  -51.9103   -7.8996   17.5787 O   0  0  0  0  0  0
  -49.3172   -8.8199   16.8228 O   0  0  0  0  0  0
  -41.6902    0.7006   19.2229 O   0  0  0  0  0  0
  -43.1138    2.1853   21.0921 O   0  0  0  0  0  0
  -49.6738   -2.2870   16.6420 C   0  0  0  0  0  0
  -50.4486   -2.6447   15.3717 C   0  0  0  0  0  0
  -49.9407   -1.8343   14.1789 C   0  0  0  0  0  0
  -48.4175   -1.9016   14.0736 C   0  0  0  0  0  0
  -50.9202   -5.9931   18.6935 C   0  0  0  0  0  0
  -49.6245   -5.2077   18.8885 C   0  0  0  0  0  0
  -50.7456   -7.0785   17.6296 C   0  0  0  0  0  0
  -49.5276   -7.9515   17.9323 C   0  0  0  0  0  0
  -47.7532   -1.6136   15.4191 C   0  0  0  0  0  0
  -50.0826   -3.1655   17.8199 C   0  0  0  0  0  0
  -48.2913   -7.0701   18.1594 C   0  0  0  0  0  0
  -47.0817   -7.8863   18.6095 C   0  0  0  0  0  0
  -45.6354   -1.3816   16.4124 C   0  0  0  0  0  0
  -45.7235    0.1376   16.5042 C   0  0  0  0  0  0
  -45.0247    0.6806   17.7265 C   0  0  0  0  0  0
  -43.6651    0.4383   17.9184 C   0  0  0  0  0  0
  -45.7399    1.4273   18.6640 C   0  0  0  0  0  0
  -43.0192    0.9424   19.0475 C   0  0  0  0  0  0
  -45.0936    1.9300   19.7931 C   0  0  0  0  0  0
  -43.7339    1.6877   19.9850 C   0  0  0  0  0  0
  -52.1512   -2.9453   16.2904 H   0  0  0  0  0  0
  -50.1906   -3.2856   12.8811 H   0  0  0  0  0  0
  -48.2551   -1.2043   12.2479 H   0  0  0  0  0  0
  -51.3687   -5.8718   20.5935 H   0  0  0  0  0  0
  -51.7847   -8.5424   16.8595 H   0  0  0  0  0  0
  -48.4468   -9.2408   16.9298 H   0  0  0  0  0  0
  -41.4237    1.0196   20.1025 H   0  0  0  0  0  0
  -43.7307    2.7708   21.5640 H   0  0  0  0  0  0
  1 13  1  0  0  0
  1 21  1  0  0  0
  2 18  1  0  0  0
  2 22  1  0  0  0
  3 18  1  0  0  0
  3 23  1  0  0  0
  4 14  1  0  0  0
  4 33  1  0  0  0
  5 21  1  0  0  0
  5 25  1  0  0  0
  6 15  1  0  0  0
  6 34  1  0  0  0
  7 16  1  0  0  0
  7 35  1  0  0  0
  8 17  1  0  0  0
  8 36  1  0  0  0
  9 19  1  0  0  0
  9 37  1  0  0  0
 10 20  1  0  0  0
 10 38  1  0  0  0
 11 30  1  0  0  0
 11 39  1  0  0  0
 12 32  1  0  0  0
 12 40  1  0  0  0
 13 14  1  0  0  0
 13 22  1  0  0  0
 14 15  1  0  0  0
 15 16  1  0  0  0
 16 21  1  0  0  0
 17 18  1  0  0  0
 19 17  1  0  0  0
 20 19  1  0  0  0
 23 20  1  0  0  0
 23 24  1  0  0  0
 25 26  1  0  0  0
 26 27  1  0  0  0
 27 28  2  0  0  0
 27 29  1  0  0  0
 28 30  1  0  0  0
 29 31  2  0  0  0
 30 32  2  0  0  0
 31 32  1  0  0  0
M  END
>  <CHROM.0>
62.88961949,-178.57078930,178.89133475

>  <CHROM.1>
-152.42963144,174.49792818,-62.68865353,-69.04383688,-67.20404083,-64.73283653
-68.68597442,59.43382445,176.76634272,168.46049014,-172.91761754,172.50489634
-38.31832375,177.87437344,59.04464014,-47.89047660,-2.89878391,17.29777333
2.61474045,0.75093666,2.42395743

>  <Name>
Forsythoside_E.pdb

>  <RI>
-9.7037e+08

>  <Rbt.Current_Directory>
/root/miniconda3/envs/rdock/share/rxdock-2013.1.1_148c5bd1-0/data/ligands/prepped_ligands/Forsythoside_E

>  <Rbt.Executable>
rbdock/0.1.0

>  <Rbt.Library>
librxdock.so/0.1.0

>  <Rbt.Parameter_File>
/root/miniconda3/envs/rdock/share/rxdock-2013.1.1_148c5bd1-0/data/scripts/dock.prm

>  <Rbt.Receptor>
def.prm

>  <SCORE>
-7.01738

>  <SCORE.INTER>
-9.66573

>  <SCORE.INTER.CONST>
1

>  <SCORE.INTER.POLAR>
-2.14988

>  <SCORE.INTER.REPUL>
0.846386

>  <SCORE.INTER.ROT>
7

>  <SCORE.INTER.VDW>
-18.9881

>  <SCORE.INTER.norm>
-0.302054

>  <SCORE.INTRA>
3.72043

>  <SCORE.INTRA.DIHEDRAL>
3.66074

>  <SCORE.INTRA.DIHEDRAL.0>
3.93665

>  <SCORE.INTRA.POLAR>
-0.138074

>  <SCORE.INTRA.POLAR.0>
0

>  <SCORE.INTRA.REPUL>
0

>  <SCORE.INTRA.REPUL.0>
0

>  <SCORE.INTRA.VDW>
2.35951

>  <SCORE.INTRA.VDW.0>
-1.0842

>  <SCORE.INTRA.norm>
0.116263

>  <SCORE.RESTR>
0

>  <SCORE.RESTR.CAVITY>
0

>  <SCORE.RESTR.norm>
0

>  <SCORE.SYSTEM>
-1.07209

>  <SCORE.SYSTEM.CONST>
0

>  <SCORE.SYSTEM.DIHEDRAL>
0.0326464

>  <SCORE.SYSTEM.VDW>
-1.08841

>  <SCORE.SYSTEM.norm>
-0.0335028

>  <SCORE.heavy>
32

>  <SCORE.norm>
-0.219293

$$$$
Forsythoside_E.pdb
  RxDock  02242109483D
librxdock.so/0.1.0
 40 42  0  0  0  0  0  0  0  0999 V2000
  -47.8696   -2.8403   16.0039 O   0  0  0  0  0  0
  -45.9109   -0.6123   16.6798 O   0  0  0  0  0  0
  -47.8781   -0.9316   17.9677 O   0  0  0  0  0  0
  -47.1220    0.0658   13.9047 O   0  0  0  0  0  0
  -49.8047   -4.1056   16.3224 O   0  0  0  0  0  0
  -49.9914    0.1978   14.2335 O   0  0  0  0  0  0
  -51.1357   -2.5125   14.4000 O   0  0  0  0  0  0
  -46.2166   -0.6813   20.2992 O   0  0  0  0  0  0
  -45.9463    2.0790   20.0664 O   0  0  0  0  0  0
  -48.3377    2.6663   18.6246 O   0  0  0  0  0  0
  -51.7851   -8.5041   20.5281 O   0  0  0  0  0  0
  -49.5164   -9.8290   19.6211 O   0  0  0  0  0  0
  -47.0999   -2.0087   15.1336 C   0  0  0  0  0  0
  -47.8631   -0.7156   14.8381 C   0  0  0  0  0  0
  -49.2449   -1.0201   14.2590 C   0  0  0  0  0  0
  -49.9846   -2.0532   15.1084 C   0  0  0  0  0  0
  -45.8532   -0.1111   19.0407 C   0  0  0  0  0  0
  -46.4482   -0.9907   17.9425 C   0  0  0  0  0  0
  -46.3860    1.3196   18.9425 C   0  0  0  0  0  0
  -47.9140    1.3330   18.8931 C   0  0  0  0  0  0
  -49.0984   -3.2597   15.4142 C   0  0  0  0  0  0
  -45.7660   -1.7338   15.8201 C   0  0  0  0  0  0
  -48.4137    0.3848   17.7940 C   0  0  0  0  0  0
  -49.9348    0.2510   17.8020 C   0  0  0  0  0  0
  -50.6981   -4.9678   15.6358 C   0  0  0  0  0  0
  -51.7033   -5.5559   16.6195 C   0  0  0  0  0  0
  -51.1226   -6.6935   17.4230 C   0  0  0  0  0  0
  -51.7239   -7.0807   18.6200 C   0  0  0  0  0  0
  -49.9842   -7.3594   16.9663 C   0  0  0  0  0  0
  -51.1877   -8.1338   19.3612 C   0  0  0  0  0  0
  -49.4482   -8.4115   17.7085 C   0  0  0  0  0  0
  -50.0494   -8.7986   18.9055 C   0  0  0  0  0  0
  -46.9680   -0.4778   13.1132 H   0  0  0  0  0  0
  -50.8549    0.0153   13.8244 H   0  0  0  0  0  0
  -51.7634   -1.7724   14.3321 H   0  0  0  0  0  0
  -45.7755   -1.5446   20.3692 H   0  0  0  0  0  0
  -46.3166    1.6634   20.8642 H   0  0  0  0  0  0
  -47.9472    3.2487   19.2988 H   0  0  0  0  0  0
  -52.5757   -7.9547   20.6673 H   0  0  0  0  0  0
  -48.9087  -10.3297   19.0502 H   0  0  0  0  0  0
  1 13  1  0  0  0
  1 21  1  0  0  0
  2 18  1  0  0  0
  2 22  1  0  0  0
  3 18  1  0  0  0
  3 23  1  0  0  0
  4 14  1  0  0  0
  4 33  1  0  0  0
  5 21  1  0  0  0
  5 25  1  0  0  0
  6 15  1  0  0  0
  6 34  1  0  0  0
  7 16  1  0  0  0
  7 35  1  0  0  0
  8 17  1  0  0  0
  8 36  1  0  0  0
  9 19  1  0  0  0
  9 37  1  0  0  0
 10 20  1  0  0  0
 10 38  1  0  0  0
 11 30  1  0  0  0
 11 39  1  0  0  0
 12 32  1  0  0  0
 12 40  1  0  0  0
 13 14  1  0  0  0
 13 22  1  0  0  0
 14 15  1  0  0  0
 15 16  1  0  0  0
 16 21  1  0  0  0
 17 18  1  0  0  0
 19 17  1  0  0  0
 20 19  1  0  0  0
 23 20  1  0  0  0
 23 24  1  0  0  0
 25 26  1  0  0  0
 26 27  1  0  0  0
 27 28  2  0  0  0
 27 29  1  0  0  0
 28 30  1  0  0  0
 29 31  2  0  0  0
 30 32  2  0  0  0
 31 32  1  0  0  0
M  END
>  <CHROM.0>
62.23725939,61.11829649,172.32524189

>  <CHROM.1>
-90.37758483,83.62529955,56.43624292,-155.62435316,-163.85644884,177.21835857
-67.46375645,65.60450238,-61.90870285,-55.23613299,1.97051920,163.71538390
-86.03534346,-78.72091998,160.54963577,-48.76647797,-2.72362534,17.22257995
0.74455480,-1.03670601,-0.85878498

>  <Name>
Forsythoside_E.pdb

>  <RI>
-9.7037e+08

>  <Rbt.Current_Directory>
/root/miniconda3/envs/rdock/share/rxdock-2013.1.1_148c5bd1-0/data/ligands/prepped_ligands/Forsythoside_E

>  <Rbt.Executable>
rbdock/0.1.0

>  <Rbt.Library>
librxdock.so/0.1.0

>  <Rbt.Parameter_File>
/root/miniconda3/envs/rdock/share/rxdock-2013.1.1_148c5bd1-0/data/scripts/dock.prm

>  <Rbt.Receptor>
def.prm

>  <SCORE>
-11.1213

>  <SCORE.INTER>
-16.6328

>  <SCORE.INTER.CONST>
1

>  <SCORE.INTER.POLAR>
-2.06906

>  <SCORE.INTER.REPUL>
0.0217267

>  <SCORE.INTER.ROT>
7

>  <SCORE.INTER.VDW>
-22.1066

>  <SCORE.INTER.norm>
-0.519775

>  <SCORE.INTRA>
6.43545

>  <SCORE.INTRA.DIHEDRAL>
11.0382

>  <SCORE.INTRA.DIHEDRAL.0>
3.93665

>  <SCORE.INTRA.POLAR>
-0.00908036

>  <SCORE.INTRA.POLAR.0>
0

>  <SCORE.INTRA.REPUL>
0

>  <SCORE.INTRA.REPUL.0>
0

>  <SCORE.INTRA.VDW>
0.947199

>  <SCORE.INTRA.VDW.0>
-1.0842

>  <SCORE.INTRA.norm>
0.201108

>  <SCORE.RESTR>
0.0122818

>  <SCORE.RESTR.CAVITY>
0.0122818

>  <SCORE.RESTR.norm>
0.000383805

>  <SCORE.SYSTEM>
-0.936286

>  <SCORE.SYSTEM.CONST>
0

>  <SCORE.SYSTEM.DIHEDRAL>
0.166529

>  <SCORE.SYSTEM.VDW>
-1.01955

>  <SCORE.SYSTEM.norm>
-0.0292589

>  <SCORE.heavy>
32

>  <SCORE.norm>
-0.347542

$$$$
Forsythoside_E.pdb
  RxDock  02242109483D
librxdock.so/0.1.0
 40 42  0  0  0  0  0  0  0  0999 V2000
  -48.9956   -1.6270   16.5699 O   0  0  0  0  0  0
  -50.1715   -4.3342   16.6639 O   0  0  0  0  0  0
  -50.9071   -5.2452   18.7277 O   0  0  0  0  0  0
  -50.9288   -3.0278   13.7930 O   0  0  0  0  0  0
  -47.1811   -0.1614   16.6532 O   0  0  0  0  0  0
  -48.4004   -2.3424   12.5698 O   0  0  0  0  0  0
  -47.2623    0.0637   13.8339 O   0  0  0  0  0  0
  -51.2140   -7.7466   17.3466 O   0  0  0  0  0  0
  -48.4822   -8.2720   17.2585 O   0  0  0  0  0  0
  -47.6371   -6.7509   19.5200 O   0  0  0  0  0  0
  -42.9301   -1.9786   16.8291 O   0  0  0  0  0  0
  -42.3269   -2.8093   19.4119 O   0  0  0  0  0  0
  -50.1579   -2.0713   15.8678 C   0  0  0  0  0  0
  -49.7555   -2.6656   14.5163 C   0  0  0  0  0  0
  -48.9474   -1.6580   13.6983 C   0  0  0  0  0  0
  -47.8136   -1.0557   14.5274 C   0  0  0  0  0  0
  -50.3144   -6.7330   16.8948 C   0  0  0  0  0  0
  -50.8952   -5.3803   17.3028 C   0  0  0  0  0  0
  -48.9337   -6.9447   17.5187 C   0  0  0  0  0  0
  -48.9741   -6.7143   19.0296 C   0  0  0  0  0  0
  -48.3141   -0.5755   15.8889 C   0  0  0  0  0  0
  -50.8639   -3.0968   16.7489 C   0  0  0  0  0  0
  -49.6165   -5.3546   19.3380 C   0  0  0  0  0  0
  -49.8136   -5.1418   20.8372 C   0  0  0  0  0  0
  -47.5763    0.5013   17.8439 C   0  0  0  0  0  0
  -46.3503    1.0778   18.5428 C   0  0  0  0  0  0
  -45.2781    0.0406   18.7703 C   0  0  0  0  0  0
  -44.5896   -0.5010   17.6855 C   0  0  0  0  0  0
  -44.9747   -0.3751   20.0677 C   0  0  0  0  0  0
  -43.5971   -1.4583   17.8968 C   0  0  0  0  0  0
  -43.9830   -1.3330   20.2779 C   0  0  0  0  0  0
  -43.2945   -1.8746   19.1930 C   0  0  0  0  0  0
  -51.4662   -2.2265   13.6715 H   0  0  0  0  0  0
  -49.1209   -2.5083   11.9377 H   0  0  0  0  0  0
  -46.8746   -0.2581   13.0018 H   0  0  0  0  0  0
  -51.9962   -7.7240   16.7700 H   0  0  0  0  0  0
  -47.5843   -8.3533   17.6237 H   0  0  0  0  0  0
  -47.3022   -7.6582   19.4164 H   0  0  0  0  0  0
  -43.1296   -2.9284   16.7634 H   0  0  0  0  0  0
  -41.8057   -2.9216   18.5985 H   0  0  0  0  0  0
  1 13  1  0  0  0
  1 21  1  0  0  0
  2 18  1  0  0  0
  2 22  1  0  0  0
  3 18  1  0  0  0
  3 23  1  0  0  0
  4 14  1  0  0  0
  4 33  1  0  0  0
  5 21  1  0  0  0
  5 25  1  0  0  0
  6 15  1  0  0  0
  6 34  1  0  0  0
  7 16  1  0  0  0
  7 35  1  0  0  0
  8 17  1  0  0  0
  8 36  1  0  0  0
  9 19  1  0  0  0
  9 37  1  0  0  0
 10 20  1  0  0  0
 10 38  1  0  0  0
 11 30  1  0  0  0
 11 39  1  0  0  0
 12 32  1  0  0  0
 12 40  1  0  0  0
 13 14  1  0  0  0
 13 22  1  0  0  0
 14 15  1  0  0  0
 15 16  1  0  0  0
 16 21  1  0  0  0
 17 18  1  0  0  0
 19 17  1  0  0  0
 20 19  1  0  0  0
 23 20  1  0  0  0
 23 24  1  0  0  0
 25 26  1  0  0  0
 26 27  1  0  0  0
 27 28  2  0  0  0
 27 29  1  0  0  0
 28 30  1  0  0  0
 29 31  2  0  0  0
 30 32  2  0  0  0
 31 32  1  0  0  0
M  END
>  <CHROM.0>
-62.47970362,177.79513659,62.02522800

>  <CHROM.1>
-70.62710387,-171.19259592,59.39326131,-69.14740709,-173.02276991,73.77801399
-63.38992509,73.34527961,176.78546844,-67.08913828,-115.45641918,13.56506633
-77.54325996,-53.25390444,68.22920226,-47.87256265,-3.06879472,17.17643459
0.51559070,-0.60979146,-0.69080156

>  <Name>
Forsythoside_E.pdb

>  <RI>
-9.7037e+08

>  <Rbt.Current_Directory>
/root/miniconda3/envs/rdock/share/rxdock-2013.1.1_148c5bd1-0/data/ligands/prepped_ligands/Forsythoside_E

>  <Rbt.Executable>
rbdock/0.1.0

>  <Rbt.Library>
librxdock.so/0.1.0

>  <Rbt.Parameter_File>
/root/miniconda3/envs/rdock/share/rxdock-2013.1.1_148c5bd1-0/data/scripts/dock.prm

>  <Rbt.Receptor>
def.prm

>  <SCORE>
-20.4437

>  <SCORE.INTER>
-22.7788

>  <SCORE.INTER.CONST>
1

>  <SCORE.INTER.POLAR>
-4.03719

>  <SCORE.INTER.REPUL>
0.0643566

>  <SCORE.INTER.ROT>
7

>  <SCORE.INTER.VDW>
-21.7741

>  <SCORE.INTER.norm>
-0.711837

>  <SCORE.INTRA>
2.73735

>  <SCORE.INTRA.DIHEDRAL>
5.90179

>  <SCORE.INTRA.DIHEDRAL.0>
3.93665

>  <SCORE.INTRA.POLAR>
0

>  <SCORE.INTRA.POLAR.0>
0

>  <SCORE.INTRA.REPUL>
0

>  <SCORE.INTRA.REPUL.0>
0

>  <SCORE.INTRA.VDW>
-0.21355

>  <SCORE.INTRA.VDW.0>
-1.0842

>  <SCORE.INTRA.norm>
0.0855421

>  <SCORE.RESTR>
0.634192

>  <SCORE.RESTR.CAVITY>
0.634192

>  <SCORE.RESTR.norm>
0.0198185

>  <SCORE.SYSTEM>
-1.03646

>  <SCORE.SYSTEM.CONST>
0

>  <SCORE.SYSTEM.DIHEDRAL>
0.0496035

>  <SCORE.SYSTEM.POLAR>
-0.00561299

>  <SCORE.SYSTEM.VDW>
-1.04217

>  <SCORE.SYSTEM.norm>
-0.0323892

>  <SCORE.heavy>
32

>  <SCORE.norm>
-0.638866

$$$$
Forsythoside_E.pdb
  RxDock  02242109483D
librxdock.so/0.1.0
 40 42  0  0  0  0  0  0  0  0999 V2000
  -47.7451   -2.4968   15.3634 O   0  0  0  0  0  0
  -46.3804   -0.4145   16.5529 O   0  0  0  0  0  0
  -44.2412   -0.3089   17.5743 O   0  0  0  0  0  0
  -47.3989    0.4904   13.2735 O   0  0  0  0  0  0
  -49.4091   -4.1245   15.5328 O   0  0  0  0  0  0
  -50.2547    0.0432   13.3343 O   0  0  0  0  0  0
  -50.8440   -2.8413   13.4592 O   0  0  0  0  0  0
  -45.0894    2.1699   18.7556 O   0  0  0  0  0  0
  -46.7310    0.9496   20.6431 O   0  0  0  0  0  0
  -45.4437   -1.5913   20.8143 O   0  0  0  0  0  0
  -46.9299   -7.4004   18.4769 O   0  0  0  0  0  0
  -48.5090   -9.6586   18.1136 O   0  0  0  0  0  0
  -47.0786   -1.5313   14.5479 C   0  0  0  0  0  0
  -48.0536   -0.4199   14.1532 C   0  0  0  0  0  0
  -49.2854   -0.9992   13.4571 C   0  0  0  0  0  0
  -49.8803   -2.1561   14.2592 C   0  0  0  0  0  0
  -46.0186    1.1673   18.3404 C   0  0  0  0  0  0
  -45.4005    0.4210   17.1594 C   0  0  0  0  0  0
  -46.3073    0.2112   19.4992 C   0  0  0  0  0  0
  -45.0653   -0.6046   19.8589 C   0  0  0  0  0  0
  -48.8036   -3.1579   14.6735 C   0  0  0  0  0  0
  -45.8977   -0.9901   15.3473 C   0  0  0  0  0  0
  -44.4926   -1.2739   18.6017 C   0  0  0  0  0  0
  -43.1681   -1.9802   18.8825 C   0  0  0  0  0  0
  -49.8187   -3.5400   16.7591 C   0  0  0  0  0  0
  -50.7482   -4.4952   17.4990 C   0  0  0  0  0  0
  -50.1474   -5.8698   17.6624 C   0  0  0  0  0  0
  -48.8006   -6.0076   17.9960 C   0  0  0  0  0  0
  -50.9413   -7.0034   17.4812 C   0  0  0  0  0  0
  -48.2464   -7.2787   18.1490 C   0  0  0  0  0  0
  -50.3861   -8.2737   17.6334 C   0  0  0  0  0  0
  -49.0393   -8.4115   17.9670 C   0  0  0  0  0  0
  -46.9506   -0.0283   12.5838 H   0  0  0  0  0  0
  -49.8601    0.7638   12.8135 H   0  0  0  0  0  0
  -51.5825   -2.2315   13.2882 H   0  0  0  0  0  0
  -45.4195    2.5507   19.5868 H   0  0  0  0  0  0
  -47.0393    0.3097   21.3076 H   0  0  0  0  0  0
  -45.7046   -1.1347   21.6326 H   0  0  0  0  0  0
  -46.5071   -6.5262   18.4194 H   0  0  0  0  0  0
  -49.2052  -10.3191   17.9554 H   0  0  0  0  0  0
  1 13  1  0  0  0
  1 21  1  0  0  0
  2 18  1  0  0  0
  2 22  1  0  0  0
  3 18  1  0  0  0
  3 23  1  0  0  0
  4 14  1  0  0  0
  4 33  1  0  0  0
  5 21  1  0  0  0
  5 25  1  0  0  0
  6 15  1  0  0  0
  6 34  1  0  0  0
  7 16  1  0  0  0
  7 35  1  0  0  0
  8 17  1  0  0  0
  8 36  1  0  0  0
  9 19  1  0  0  0
  9 37  1  0  0  0
 10 20  1  0  0  0
 10 38  1  0  0  0
 11 30  1  0  0  0
 11 39  1  0  0  0
 12 32  1  0  0  0
 12 40  1  0  0  0
 13 14  1  0  0  0
 13 22  1  0  0  0
 14 15  1  0  0  0
 15 16  1  0  0  0
 16 21  1  0  0  0
 17 18  1  0  0  0
 19 17  1  0  0  0
 20 19  1  0  0  0
 23 20  1  0  0  0
 23 24  1  0  0  0
 25 26  1  0  0  0
 26 27  1  0  0  0
 27 28  2  0  0  0
 27 29  1  0  0  0
 28 30  1  0  0  0
 29 31  2  0  0  0
 30 32  2  0  0  0
 31 32  1  0  0  0
M  END
>  <CHROM.0>
-66.69414207,-57.59054915,55.70593258

>  <CHROM.1>
-64.13819345,-163.89636908,48.03819135,53.83472708,166.31620471,59.39741002
-65.34944886,-171.42640313,171.13967208,-66.02151320,-9.20979365,179.65079004
-58.77104428,52.90836156,41.30570573,-47.66190608,-2.63965843,16.92765762
0.81092452,-0.85228817,-0.56170079

>  <Name>
Forsythoside_E.pdb

>  <RI>
-9.7037e+08

>  <Rbt.Current_Directory>
/root/miniconda3/envs/rdock/share/rxdock-2013.1.1_148c5bd1-0/data/ligands/prepped_ligands/Forsythoside_E

>  <Rbt.Executable>
rbdock/0.1.0

>  <Rbt.Library>
librxdock.so/0.1.0

>  <Rbt.Parameter_File>
/root/miniconda3/envs/rdock/share/rxdock-2013.1.1_148c5bd1-0/data/scripts/dock.prm

>  <Rbt.Receptor>
def.prm

>  <SCORE>
-16.0963

>  <SCORE.INTER>
-18.5606

>  <SCORE.INTER.CONST>
1

>  <SCORE.INTER.POLAR>
-2.25165

>  <SCORE.INTER.REPUL>
0.026108

>  <SCORE.INTER.ROT>
7

>  <SCORE.INTER.VDW>
-23.4355

>  <SCORE.INTER.norm>
-0.580019

>  <SCORE.INTRA>
3.38989

>  <SCORE.INTRA.DIHEDRAL>
1.2776

>  <SCORE.INTRA.DIHEDRAL.0>
3.93665

>  <SCORE.INTRA.POLAR>
-0.075589

>  <SCORE.INTRA.POLAR.0>
0

>  <SCORE.INTRA.REPUL>
0

>  <SCORE.INTRA.REPUL.0>
0

>  <SCORE.INTRA.VDW>
3.00809

>  <SCORE.INTRA.VDW.0>
-1.0842

>  <SCORE.INTRA.norm>
0.105934

>  <SCORE.RESTR>
0.000222146

>  <SCORE.RESTR.CAVITY>
0.000222146

>  <SCORE.RESTR.norm>
6.94205e-06

>  <SCORE.SYSTEM>
-0.925778

>  <SCORE.SYSTEM.CONST>
0

>  <SCORE.SYSTEM.DIHEDRAL>
0.191869

>  <SCORE.SYSTEM.VDW>
-1.02171

>  <SCORE.SYSTEM.norm>
-0.0289306

>  <SCORE.heavy>
32

>  <SCORE.norm>
-0.503009

$$$$
Forsythoside_E.pdb
  RxDock  02242109483D
librxdock.so/0.1.0
 40 42  0  0  0  0  0  0  0  0999 V2000
  -48.9201   -2.1496   16.5396 O   0  0  0  0  0  0
  -49.2862   -4.7017   17.5838 O   0  0  0  0  0  0
  -48.2291   -6.2977   18.9858 O   0  0  0  0  0  0
  -51.2254   -4.3023   14.6790 O   0  0  0  0  0  0
  -47.4472   -0.4644   15.8781 O   0  0  0  0  0  0
  -49.2770   -3.5290   12.6878 O   0  0  0  0  0  0
  -48.3064   -0.7948   13.2026 O   0  0  0  0  0  0
  -50.8424   -6.9095   20.0131 O   0  0  0  0  0  0
  -51.6241   -8.3374   17.7556 O   0  0  0  0  0  0
  -49.0602   -9.1462   16.7990 O   0  0  0  0  0  0
  -43.1356   -3.3295   17.9191 O   0  0  0  0  0  0
  -41.5646   -1.1600   18.6608 O   0  0  0  0  0  0
  -50.1245   -2.8722   16.2781 C   0  0  0  0  0  0
  -49.9899   -3.6540   14.9695 C   0  0  0  0  0  0
  -49.6237   -2.7217   13.8144 C   0  0  0  0  0  0
  -48.4417   -1.8251   14.1816 C   0  0  0  0  0  0
  -50.6478   -6.3422   18.7165 C   0  0  0  0  0  0
  -49.3859   -5.4828   18.7696 C   0  0  0  0  0  0
  -50.5071   -7.4546   17.6758 C   0  0  0  0  0  0
  -49.2204   -8.2505   17.8951 C   0  0  0  0  0  0
  -48.6457   -1.1656   15.5447 C   0  0  0  0  0  0
  -50.3743   -3.7961   17.4657 C   0  0  0  0  0  0
  -48.0201   -7.2974   17.9824 C   0  0  0  0  0  0
  -46.7319   -8.0318   18.3474 C   0  0  0  0  0  0
  -47.5969    0.2691   17.0833 C   0  0  0  0  0  0
  -47.1843   -0.5977   18.2675 C   0  0  0  0  0  0
  -45.6869   -0.7519   18.3725 C   0  0  0  0  0  0
  -45.0910   -1.9820   18.0971 C   0  0  0  0  0  0
  -44.8984    0.3383   18.7436 C   0  0  0  0  0  0
  -43.7064   -2.1232   18.1924 C   0  0  0  0  0  0
  -43.5143    0.1960   18.8395 C   0  0  0  0  0  0
  -42.9184   -1.0342   18.5642 C   0  0  0  0  0  0
  -51.4051   -4.9394   15.3914 H   0  0  0  0  0  0
  -49.0489   -2.9376   11.9500 H   0  0  0  0  0  0
  -48.2191   -1.2170   12.3305 H   0  0  0  0  0  0
  -51.6818   -7.3994   19.9968 H   0  0  0  0  0  0
  -52.4204   -7.8232   17.5374 H   0  0  0  0  0  0
  -49.8226   -9.7503   16.7889 H   0  0  0  0  0  0
  -42.2792   -3.1827   17.4818 H   0  0  0  0  0  0
  -41.3241   -2.0944   18.5385 H   0  0  0  0  0  0
  1 13  1  0  0  0
  1 21  1  0  0  0
  2 18  1  0  0  0
  2 22  1  0  0  0
  3 18  1  0  0  0
  3 23  1  0  0  0
  4 14  1  0  0  0
  4 33  1  0  0  0
  5 21  1  0  0  0
  5 25  1  0  0  0
  6 15  1  0  0  0
  6 34  1  0  0  0
  7 16  1  0  0  0
  7 35  1  0  0  0
  8 17  1  0  0  0
  8 36  1  0  0  0
  9 19  1  0  0  0
  9 37  1  0  0  0
 10 20  1  0  0  0
 10 38  1  0  0  0
 11 30  1  0  0  0
 11 39  1  0  0  0
 12 32  1  0  0  0
 12 40  1  0  0  0
 13 14  1  0  0  0
 13 22  1  0  0  0
 14 15  1  0  0  0
 15 16  1  0  0  0
 16 21  1  0  0  0
 17 18  1  0  0  0
 19 17  1  0  0  0
 20 19  1  0  0  0
 23 20  1  0  0  0
 23 24  1  0  0  0
 25 26  1  0  0  0
 26 27  1  0  0  0
 27 28  2  0  0  0
 27 29  1  0  0  0
 28 30  1  0  0  0
 29 31  2  0  0  0
 30 32  2  0  0  0
 31 32  1  0  0  0
M  END
>  <CHROM.0>
-60.79457716,64.24698592,55.41495168

>  <CHROM.1>
-173.59180423,172.98755947,-62.81925039,-64.39415066,90.43095305,179.65426190
-55.85012607,175.68498113,62.81742014,-61.24310913,144.20491774,-6.49197759
-61.02115171,74.89661448,-109.97336634,-47.91172045,-3.70796216,17.09336655
0.67143028,-0.56274001,-0.56481057

>  <Name>
Forsythoside_E.pdb

>  <RI>
-9.7037e+08

>  <Rbt.Current_Directory>
/root/miniconda3/envs/rdock/share/rxdock-2013.1.1_148c5bd1-0/data/ligands/prepped_ligands/Forsythoside_E

>  <Rbt.Executable>
rbdock/0.1.0

>  <Rbt.Library>
librxdock.so/0.1.0

>  <Rbt.Parameter_File>
/root/miniconda3/envs/rdock/share/rxdock-2013.1.1_148c5bd1-0/data/scripts/dock.prm

>  <Rbt.Receptor>
def.prm

>  <SCORE>
-20.1837

>  <SCORE.INTER>
-23.1352

>  <SCORE.INTER.CONST>
1

>  <SCORE.INTER.POLAR>
-4.01476

>  <SCORE.INTER.REPUL>
0.154618

>  <SCORE.INTER.ROT>
7

>  <SCORE.INTER.VDW>
-22.6581

>  <SCORE.INTER.norm>
-0.722976

>  <SCORE.INTRA>
3.95022

>  <SCORE.INTRA.DIHEDRAL>
3.84436

>  <SCORE.INTRA.DIHEDRAL.0>
3.93665

>  <SCORE.INTRA.POLAR>
-0.00128747

>  <SCORE.INTRA.POLAR.0>
0

>  <SCORE.INTRA.REPUL>
0

>  <SCORE.INTRA.REPUL.0>
0

>  <SCORE.INTRA.VDW>
2.03242

>  <SCORE.INTRA.VDW.0>
-1.0842

>  <SCORE.INTRA.norm>
0.123444

>  <SCORE.RESTR>
0

>  <SCORE.RESTR.CAVITY>
0

>  <SCORE.RESTR.norm>
0

>  <SCORE.SYSTEM>
-0.998661

>  <SCORE.SYSTEM.CONST>
0

>  <SCORE.SYSTEM.DIHEDRAL>
0.146311

>  <SCORE.SYSTEM.VDW>
-1.07182

>  <SCORE.SYSTEM.norm>
-0.0312081

>  <SCORE.heavy>
32

>  <SCORE.norm>
-0.630739

$$$$
Forsythoside_E.pdb
  RxDock  02242109483D
librxdock.so/0.1.0
 40 42  0  0  0  0  0  0  0  0999 V2000
  -48.1507   -1.9600   16.2478 O   0  0  0  0  0  0
  -50.1510   -4.2023   18.1729 O   0  0  0  0  0  0
  -49.2252   -6.3316   18.6621 O   0  0  0  0  0  0
  -51.5020   -3.3193   15.6719 O   0  0  0  0  0  0
  -47.0341   -0.0933   15.4018 O   0  0  0  0  0  0
  -50.9925   -1.7627   13.2894 O   0  0  0  0  0  0
  -49.3508    0.5984   13.9322 O   0  0  0  0  0  0
  -50.3546   -6.0563   21.2904 O   0  0  0  0  0  0
  -52.9577   -6.5760   20.4535 O   0  0  0  0  0  0
  -52.4023   -8.1201   18.1191 O   0  0  0  0  0  0
  -44.8319    0.6322   19.6575 O   0  0  0  0  0  0
  -43.2042   -1.5206   20.3215 O   0  0  0  0  0  0
  -49.3973   -2.5731   16.5815 C   0  0  0  0  0  0
  -50.2300   -2.7847   15.3152 C   0  0  0  0  0  0
  -50.4269   -1.4658   14.5674 C   0  0  0  0  0  0
  -49.0986   -0.7338   14.3789 C   0  0  0  0  0  0
  -50.8837   -5.3641   20.1582 C   0  0  0  0  0  0
  -49.7294   -5.1015   19.1926 C   0  0  0  0  0  0
  -51.9713   -6.2085   19.4916 C   0  0  0  0  0  0
  -51.3790   -7.4735   18.8701 C   0  0  0  0  0  0
  -48.3138   -0.6587   15.6878 C   0  0  0  0  0  0
  -49.0886   -3.8922   17.2823 C   0  0  0  0  0  0
  -50.1994   -7.1094   17.9577 C   0  0  0  0  0  0
  -49.4814   -8.3489   17.4288 C   0  0  0  0  0  0
  -46.2114   -1.0091   14.6964 C   0  0  0  0  0  0
  -44.7440   -0.6749   14.9395 C   0  0  0  0  0  0
  -44.3347   -0.8963   16.3750 C   0  0  0  0  0  0
  -44.7729   -0.0216   17.3684 C   0  0  0  0  0  0
  -43.5185   -1.9784   16.7079 C   0  0  0  0  0  0
  -44.3958   -0.2280   18.6956 C   0  0  0  0  0  0
  -43.1411   -2.1835   18.0349 C   0  0  0  0  0  0
  -43.5794   -1.3087   19.0284 C   0  0  0  0  0  0
  -51.9429   -2.6805   16.2576 H   0  0  0  0  0  0
  -51.8808   -2.1331   13.4300 H   0  0  0  0  0  0
  -49.9991    1.0012   14.5354 H   0  0  0  0  0  0
  -49.6656   -5.4943   21.6832 H   0  0  0  0  0  0
  -52.5053   -7.0552   21.1690 H   0  0  0  0  0  0
  -52.0127   -8.8996   17.6868 H   0  0  0  0  0  0
  -44.3827    0.4247   20.4951 H   0  0  0  0  0  0
  -43.0960   -2.4762   20.4671 H   0  0  0  0  0  0
  1 13  1  0  0  0
  1 21  1  0  0  0
  2 18  1  0  0  0
  2 22  1  0  0  0
  3 18  1  0  0  0
  3 23  1  0  0  0
  4 14  1  0  0  0
  4 33  1  0  0  0
  5 21  1  0  0  0
  5 25  1  0  0  0
  6 15  1  0  0  0
  6 34  1  0  0  0
  7 16  1  0  0  0
  7 35  1  0  0  0
  8 17  1  0  0  0
  8 36  1  0  0  0
  9 19  1  0  0  0
  9 37  1  0  0  0
 10 20  1  0  0  0
 10 38  1  0  0  0
 11 30  1  0  0  0
 11 39  1  0  0  0
 12 32  1  0  0  0
 12 40  1  0  0  0
 13 14  1  0  0  0
 13 22  1  0  0  0
 14 15  1  0  0  0
 15 16  1  0  0  0
 16 21  1  0  0  0
 17 18  1  0  0  0
 19 17  1  0  0  0
 20 19  1  0  0  0
 23 20  1  0  0  0
 23 24  1  0  0  0
 25 26  1  0  0  0
 26 27  1  0  0  0
 27 28  2  0  0  0
 27 29  1  0  0  0
 28 30  1  0  0  0
 29 31  2  0  0  0
 30 32  2  0  0  0
 31 32  1  0  0  0
M  END
>  <CHROM.0>
-179.56533373,-64.85997420,-169.82083346

>  <CHROM.1>
-58.64566989,-158.07444293,60.30558909,48.34991335,-155.00429171,65.28175474
51.33135339,58.70319441,-57.49766042,177.11352152,-172.05881415,148.81761022
151.79578953,66.33661481,-72.41286545,-48.39448717,-3.13162257,17.33485536
0.65715013,-0.48260902,-0.85023078

>  <Name>
Forsythoside_E.pdb

>  <RI>
-9.7037e+08

>  <Rbt.Current_Directory>
/root/miniconda3/envs/rdock/share/rxdock-2013.1.1_148c5bd1-0/data/ligands/prepped_ligands/Forsythoside_E

>  <Rbt.Executable>
rbdock/0.1.0

>  <Rbt.Library>
librxdock.so/0.1.0

>  <Rbt.Parameter_File>
/root/miniconda3/envs/rdock/share/rxdock-2013.1.1_148c5bd1-0/data/scripts/dock.prm

>  <Rbt.Receptor>
def.prm

>  <SCORE>
-7.51204

>  <SCORE.INTER>
-11.6612

>  <SCORE.INTER.CONST>
1

>  <SCORE.INTER.POLAR>
-0.49497

>  <SCORE.INTER.REPUL>
0

>  <SCORE.INTER.ROT>
7

>  <SCORE.INTER.VDW>
-22.3783

>  <SCORE.INTER.norm>
-0.364414

>  <SCORE.INTRA>
5.07347

>  <SCORE.INTRA.DIHEDRAL>
6.81707

>  <SCORE.INTRA.DIHEDRAL.0>
3.93665

>  <SCORE.INTRA.POLAR>
-0.146579

>  <SCORE.INTRA.POLAR.0>
0

>  <SCORE.INTRA.REPUL>
0

>  <SCORE.INTRA.REPUL.0>
0

>  <SCORE.INTRA.VDW>
2.16331

>  <SCORE.INTRA.VDW.0>
-1.0842

>  <SCORE.INTRA.norm>
0.158546

>  <SCORE.RESTR>
0

>  <SCORE.RESTR.CAVITY>
0

>  <SCORE.RESTR.norm>
0

>  <SCORE.SYSTEM>
-0.924279

>  <SCORE.SYSTEM.CONST>
0

>  <SCORE.SYSTEM.DIHEDRAL>
0.358011

>  <SCORE.SYSTEM.POLAR>
-0.0181241

>  <SCORE.SYSTEM.VDW>
-1.04166

>  <SCORE.SYSTEM.norm>
-0.0288837

>  <SCORE.heavy>
32

>  <SCORE.norm>
-0.234751

$$$$
Forsythoside_E.pdb
  RxDock  02242109493D
librxdock.so/0.1.0
 40 42  0  0  0  0  0  0  0  0999 V2000
  -49.3465   -2.1245   16.2292 O   0  0  0  0  0  0
  -46.7122   -1.0939   17.4266 O   0  0  0  0  0  0
  -45.7687   -1.4447   19.5754 O   0  0  0  0  0  0
  -46.3635   -1.0623   14.3896 O   0  0  0  0  0  0
  -51.6260   -2.0271   15.7378 O   0  0  0  0  0  0
  -48.4609    0.5844   13.2722 O   0  0  0  0  0  0
  -51.0119   -0.8895   13.2210 O   0  0  0  0  0  0
  -43.4455   -0.0469   18.6226 O   0  0  0  0  0  0
  -44.6416    2.4625   18.7603 O   0  0  0  0  0  0
  -46.5974    1.9419   20.7720 O   0  0  0  0  0  0
  -52.3289   -8.0666   17.9358 O   0  0  0  0  0  0
  -54.4867   -9.2061   16.6052 O   0  0  0  0  0  0
  -48.0072   -2.2005   15.7375 C   0  0  0  0  0  0
  -47.6708   -0.9365   14.9431 C   0  0  0  0  0  0
  -48.6794   -0.7190   13.8149 C   0  0  0  0  0  0
  -50.1148   -0.8223   14.3295 C   0  0  0  0  0  0
  -44.7401    0.1505   18.0515 C   0  0  0  0  0  0
  -45.5163   -1.1573   18.1961 C   0  0  0  0  0  0
  -45.4588    1.2939   18.7701 C   0  0  0  0  0  0
  -45.7793    0.9165   20.2165 C   0  0  0  0  0  0
  -50.3120   -2.0757   15.1808 C   0  0  0  0  0  0
  -47.0847   -2.3752   16.9395 C   0  0  0  0  0  0
  -46.5139   -0.4309   20.2587 C   0  0  0  0  0  0
  -46.7260   -0.9222   21.6889 C   0  0  0  0  0  0
  -52.0407   -3.3051   16.1937 C   0  0  0  0  0  0
  -52.5171   -4.1429   15.0125 C   0  0  0  0  0  0
  -53.0384   -5.4932   15.4392 C   0  0  0  0  0  0
  -52.4384   -6.1693   16.5008 C   0  0  0  0  0  0
  -54.1229   -6.0642   14.7715 C   0  0  0  0  0  0
  -52.9222   -7.4167   16.8960 C   0  0  0  0  0  0
  -54.6053   -7.3118   15.1667 C   0  0  0  0  0  0
  -54.0053   -7.9879   16.2283 C   0  0  0  0  0  0
  -46.3865   -1.7693   13.7224 H   0  0  0  0  0  0
  -49.1138    0.7320   12.5664 H   0  0  0  0  0  0
  -51.9174   -0.9598   13.5697 H   0  0  0  0  0  0
  -42.9350    0.7684   18.4828 H   0  0  0  0  0  0
  -44.5811    2.7703   17.8396 H   0  0  0  0  0  0
  -47.3883    2.0331   20.2131 H   0  0  0  0  0  0
  -51.9255   -7.4107   18.5303 H   0  0  0  0  0  0
  -55.0970   -9.5307   15.9210 H   0  0  0  0  0  0
  1 13  1  0  0  0
  1 21  1  0  0  0
  2 18  1  0  0  0
  2 22  1  0  0  0
  3 18  1  0  0  0
  3 23  1  0  0  0
  4 14  1  0  0  0
  4 33  1  0  0  0
  5 21  1  0  0  0
  5 25  1  0  0  0
  6 15  1  0  0  0
  6 34  1  0  0  0
  7 16  1  0  0  0
  7 35  1  0  0  0
  8 17  1  0  0  0
  8 36  1  0  0  0
  9 19  1  0  0  0
  9 37  1  0  0  0
 10 20  1  0  0  0
 10 38  1  0  0  0
 11 30  1  0  0  0
 11 39  1  0  0  0
 12 32  1  0  0  0
 12 40  1  0  0  0
 13 14  1  0  0  0
 13 22  1  0  0  0
 14 15  1  0  0  0
 15 16  1  0  0  0
 16 21  1  0  0  0
 17 18  1  0  0  0
 19 17  1  0  0  0
 20 19  1  0  0  0
 23 20  1  0  0  0
 23 24  1  0  0  0
 25 26  1  0  0  0
 26 27  1  0  0  0
 27 28  2  0  0  0
 27 29  1  0  0  0
 28 30  1  0  0  0
 29 31  2  0  0  0
 30 32  2  0  0  0
 31 32  1  0  0  0
M  END
>  <CHROM.0>
-67.23191827,177.80276279,56.86092973

>  <CHROM.1>
-87.57401673,-158.74625268,66.93634762,-77.36217485,-79.75136520,-178.84303323
179.68370962,176.70536301,67.72512526,56.92759991,26.99944503,-167.59061927
-88.83296422,-177.11539980,-35.90712597,-49.06278192,-2.34404690,16.79859638
3.01932101,0.76360130,2.12289535

>  <Name>
Forsythoside_E.pdb

>  <RI>
-9.7037e+08

>  <Rbt.Current_Directory>
/root/miniconda3/envs/rdock/share/rxdock-2013.1.1_148c5bd1-0/data/ligands/prepped_ligands/Forsythoside_E

>  <Rbt.Executable>
rbdock/0.1.0

>  <Rbt.Library>
librxdock.so/0.1.0

>  <Rbt.Parameter_File>
/root/miniconda3/envs/rdock/share/rxdock-2013.1.1_148c5bd1-0/data/scripts/dock.prm

>  <Rbt.Receptor>
def.prm

>  <SCORE>
-14.3164

>  <SCORE.INTER>
-19.699

>  <SCORE.INTER.CONST>
1

>  <SCORE.INTER.POLAR>
-2.51265

>  <SCORE.INTER.REPUL>
0

>  <SCORE.INTER.ROT>
7

>  <SCORE.INTER.VDW>
-23.5559

>  <SCORE.INTER.norm>
-0.615592

>  <SCORE.INTRA>
6.35939

>  <SCORE.INTRA.DIHEDRAL>
9.48206

>  <SCORE.INTRA.DIHEDRAL.0>
3.93665

>  <SCORE.INTRA.POLAR>
-0.0121366

>  <SCORE.INTRA.POLAR.0>
0

>  <SCORE.INTRA.REPUL>
0

>  <SCORE.INTRA.REPUL.0>
0

>  <SCORE.INTRA.VDW>
1.65962

>  <SCORE.INTRA.VDW.0>
-1.0842

>  <SCORE.INTRA.norm>
0.198731

>  <SCORE.RESTR>
0

>  <SCORE.RESTR.CAVITY>
0

>  <SCORE.RESTR.norm>
0

>  <SCORE.SYSTEM>
-0.976885

>  <SCORE.SYSTEM.CONST>
0

>  <SCORE.SYSTEM.DIHEDRAL>
0.183529

>  <SCORE.SYSTEM.VDW>
-1.06865

>  <SCORE.SYSTEM.norm>
-0.0305276

>  <SCORE.heavy>
32

>  <SCORE.norm>
-0.447389

$$$$
