Forsythoside_E.pdb
  RxDock  02242101193D
librxdock.so/0.1.0
 40 42  0  0  0  0  0  0  0  0999 V2000
  -47.7384   -2.0346   17.9102 O   0  0  0  0  0  0
  -44.9623   -2.0532   16.9970 O   0  0  0  0  0  0
  -44.8037   -2.0109   19.3641 O   0  0  0  0  0  0
  -46.9092   -2.2520   14.3499 O   0  0  0  0  0  0
  -49.5106   -1.0472   19.0641 O   0  0  0  0  0  0
  -48.6091    0.0819   14.5001 O   0  0  0  0  0  0
  -50.6511   -0.2633   16.5963 O   0  0  0  0  0  0
  -42.0400   -1.3018   19.0202 O   0  0  0  0  0  0
  -42.5895    1.3262   18.2865 O   0  0  0  0  0  0
  -45.1148    1.6561   19.5735 O   0  0  0  0  0  0
  -50.0548   -6.4983   16.4536 O   0  0  0  0  0  0
  -51.9237   -5.5394   14.6335 O   0  0  0  0  0  0
  -47.2702   -2.6377   16.7025 C   0  0  0  0  0  0
  -47.2990   -1.6155   15.5640 C   0  0  0  0  0  0
  -48.6995   -1.0249   15.3990 C   0  0  0  0  0  0
  -49.2595   -0.5485   16.7388 C   0  0  0  0  0  0
  -43.0236   -1.0396   18.0178 C   0  0  0  0  0  0
  -44.0964   -2.1219   18.1247 C   0  0  0  0  0  0
  -43.6273    0.3500   18.2298 C   0  0  0  0  0  0
  -44.4389    0.4031   19.5244 C   0  0  0  0  0  0
  -49.0985   -1.6155   17.8205 C   0  0  0  0  0  0
  -45.8590   -3.1544   16.9631 C   0  0  0  0  0  0
  -45.4525   -0.7493   19.5581 C   0  0  0  0  0  0
  -46.1860   -0.8271   20.8952 C   0  0  0  0  0  0
  -50.8764   -1.3241   19.3305 C   0  0  0  0  0  0
  -51.0684   -2.8236   19.5268 C   0  0  0  0  0  0
  -51.2927   -3.5495   18.2231 C   0  0  0  0  0  0
  -50.5630   -4.7013   17.9312 C   0  0  0  0  0  0
  -52.2324   -3.0683   17.3101 C   0  0  0  0  0  0
  -50.7723   -5.3730   16.7266 C   0  0  0  0  0  0
  -52.4402   -3.7400   16.1056 C   0  0  0  0  0  0
  -51.7106   -4.8918   15.8137 C   0  0  0  0  0  0
  -47.6245   -2.1283   13.7028 H   0  0  0  0  0  0
  -49.5124    0.3636   14.2748 H   0  0  0  0  0  0
  -50.9659    0.1274   17.4298 H   0  0  0  0  0  0
  -41.6154   -2.1483   18.8013 H   0  0  0  0  0  0
  -42.0219    1.1071   19.0455 H   0  0  0  0  0  0
  -44.4444    2.3589   19.6275 H   0  0  0  0  0  0
  -50.6693   -7.2217   16.2406 H   0  0  0  0  0  0
  -51.6777   -6.4747   14.7369 H   0  0  0  0  0  0
  1 13  1  0  0  0
  1 21  1  0  0  0
  2 18  1  0  0  0
  2 22  1  0  0  0
  3 18  1  0  0  0
  3 23  1  0  0  0
  4 14  1  0  0  0
  4 33  1  0  0  0
  5 21  1  0  0  0
  5 25  1  0  0  0
  6 15  1  0  0  0
  6 34  1  0  0  0
  7 16  1  0  0  0
  7 35  1  0  0  0
  8 17  1  0  0  0
  8 36  1  0  0  0
  9 19  1  0  0  0
  9 37  1  0  0  0
 10 20  1  0  0  0
 10 38  1  0  0  0
 11 30  1  0  0  0
 11 39  1  0  0  0
 12 32  1  0  0  0
 12 40  1  0  0  0
 13 14  1  0  0  0
 13 22  1  0  0  0
 14 15  1  0  0  0
 15 16  1  0  0  0
 16 21  1  0  0  0
 17 18  1  0  0  0
 19 17  1  0  0  0
 20 19  1  0  0  0
 23 20  1  0  0  0
 23 24  1  0  0  0
 25 26  1  0  0  0
 26 27  1  0  0  0
 27 28  2  0  0  0
 27 29  1  0  0  0
 28 30  1  0  0  0
 29 31  2  0  0  0
 30 32  2  0  0  0
 31 32  1  0  0  0
M  END
>  <CHROM.0>
56.71014438,-57.61753295,60.96799860

>  <CHROM.1>
-64.48010121,132.57973845,123.21859000,-145.91645719,65.35952268,170.49566165
-174.01617710,64.80000656,-61.39587289,-64.39053117,125.81876226,25.22957262
-74.64404753,-86.46300460,131.37275530,-47.73162513,-1.94986884,17.52680277
0.49672126,0.17018420,0.83547391

>  <Name>
Forsythoside_E.pdb

>  <RI>
-1.14536e+09

>  <Rbt.Current_Directory>
/root/miniconda3/envs/rdock/share/rxdock-2013.1.1_148c5bd1-0/data/ligands/prepped_ligands/Forsythoside_E

>  <Rbt.Executable>
rbdock/0.1.0

>  <Rbt.Library>
librxdock.so/0.1.0

>  <Rbt.Parameter_File>
/root/miniconda3/envs/rdock/share/rxdock-2013.1.1_148c5bd1-0/data/scripts/dock.prm

>  <Rbt.Receptor>
def.prm

>  <SCORE>
-4.21946

>  <SCORE.INTER>
-15.1514

>  <SCORE.INTER.CONST>
1

>  <SCORE.INTER.POLAR>
-3.0297

>  <SCORE.INTER.REPUL>
0.0604213

>  <SCORE.INTER.ROT>
7

>  <SCORE.INTER.VDW>
-17.5526

>  <SCORE.INTER.norm>
-0.473482

>  <SCORE.INTRA>
11.9171

>  <SCORE.INTRA.DIHEDRAL>
22.8976

>  <SCORE.INTRA.DIHEDRAL.0>
3.93665

>  <SCORE.INTRA.POLAR>
-0.0101275

>  <SCORE.INTRA.POLAR.0>
0

>  <SCORE.INTRA.REPUL>
0

>  <SCORE.INTRA.REPUL.0>
0

>  <SCORE.INTRA.VDW>
0.502709

>  <SCORE.INTRA.VDW.0>
-1.0842

>  <SCORE.INTRA.norm>
0.372408

>  <SCORE.RESTR>
0

>  <SCORE.RESTR.CAVITY>
0

>  <SCORE.RESTR.norm>
0

>  <SCORE.SYSTEM>
-0.985086

>  <SCORE.SYSTEM.CONST>
0

>  <SCORE.SYSTEM.DIHEDRAL>
0.0587551

>  <SCORE.SYSTEM.POLAR>
-0.00333106

>  <SCORE.SYSTEM.VDW>
-1.00314

>  <SCORE.SYSTEM.norm>
-0.0307839

>  <SCORE.heavy>
32

>  <SCORE.norm>
-0.131858

$$$$
Forsythoside_E.pdb
  RxDock  02242101193D
librxdock.so/0.1.0
 40 42  0  0  0  0  0  0  0  0999 V2000
  -46.2623   -2.4722   17.6425 O   0  0  0  0  0  0
  -44.8898   -0.7488   19.1661 O   0  0  0  0  0  0
  -47.2611   -0.8062   19.1038 O   0  0  0  0  0  0
  -42.8875   -1.9503   16.3200 O   0  0  0  0  0  0
  -48.3030   -2.9620   16.6214 O   0  0  0  0  0  0
  -44.5912   -1.3532   14.0617 O   0  0  0  0  0  0
  -47.0005   -3.0490   14.1112 O   0  0  0  0  0  0
  -47.2053   -0.1088   21.8912 O   0  0  0  0  0  0
  -46.5354    2.5523   21.4263 O   0  0  0  0  0  0
  -47.5952    2.8516   18.7939 O   0  0  0  0  0  0
  -51.8662   -7.9027   17.5026 O   0  0  0  0  0  0
  -53.8442   -7.0443   15.7488 O   0  0  0  0  0  0
  -44.8372   -2.5643   17.5990 C   0  0  0  0  0  0
  -44.3004   -1.7813   16.3988 C   0  0  0  0  0  0
  -44.9419   -2.2700   15.0999 C   0  0  0  0  0  0
  -46.4634   -2.3382   15.2267 C   0  0  0  0  0  0
  -46.1280    0.2038   21.0066 C   0  0  0  0  0  0
  -46.0891   -0.8722   19.9229 C   0  0  0  0  0  0
  -46.3415    1.5888   20.3931 C   0  0  0  0  0  0
  -47.5562    1.5955   19.4648 C   0  0  0  0  0  0
  -46.8836   -3.0644   16.5037 C   0  0  0  0  0  0
  -44.3000   -2.0170   18.9174 C   0  0  0  0  0  0
  -47.4471    0.4520   18.4464 C   0  0  0  0  0  0
  -48.7059    0.3256   17.5912 C   0  0  0  0  0  0
  -48.7801   -3.6778   17.7498 C   0  0  0  0  0  0
  -50.2370   -3.3133   18.0117 C   0  0  0  0  0  0
  -51.1958   -4.3110   17.4096 C   0  0  0  0  0  0
  -51.0902   -5.6632   17.7330 C   0  0  0  0  0  0
  -52.1897   -3.8790   16.5301 C   0  0  0  0  0  0
  -51.9782   -6.5846   17.1776 C   0  0  0  0  0  0
  -53.0765   -4.8011   15.9745 C   0  0  0  0  0  0
  -52.9709   -6.1533   16.2979 C   0  0  0  0  0  0
  -42.4976   -1.6081   17.1425 H   0  0  0  0  0  0
  -43.6211   -1.3281   13.9948 H   0  0  0  0  0  0
  -47.9599   -3.1395   14.2447 H   0  0  0  0  0  0
  -46.9908   -0.9489   22.3306 H   0  0  0  0  0  0
  -46.6493    3.4196   21.0009 H   0  0  0  0  0  0
  -46.8046    2.9179   18.2312 H   0  0  0  0  0  0
  -51.2678   -7.9912   18.2644 H   0  0  0  0  0  0
  -53.3520   -7.8305   15.4563 H   0  0  0  0  0  0
  1 13  1  0  0  0
  1 21  1  0  0  0
  2 18  1  0  0  0
  2 22  1  0  0  0
  3 18  1  0  0  0
  3 23  1  0  0  0
  4 14  1  0  0  0
  4 33  1  0  0  0
  5 21  1  0  0  0
  5 25  1  0  0  0
  6 15  1  0  0  0
  6 34  1  0  0  0
  7 16  1  0  0  0
  7 35  1  0  0  0
  8 17  1  0  0  0
  8 36  1  0  0  0
  9 19  1  0  0  0
  9 37  1  0  0  0
 10 20  1  0  0  0
 10 38  1  0  0  0
 11 30  1  0  0  0
 11 39  1  0  0  0
 12 32  1  0  0  0
 12 40  1  0  0  0
 13 14  1  0  0  0
 13 22  1  0  0  0
 14 15  1  0  0  0
 15 16  1  0  0  0
 16 21  1  0  0  0
 17 18  1  0  0  0
 19 17  1  0  0  0
 20 19  1  0  0  0
 23 20  1  0  0  0
 23 24  1  0  0  0
 25 26  1  0  0  0
 26 27  1  0  0  0
 27 28  2  0  0  0
 27 29  1  0  0  0
 28 30  1  0  0  0
 29 31  2  0  0  0
 30 32  2  0  0  0
 31 32  1  0  0  0
M  END
>  <CHROM.0>
-174.85161130,-179.11051514,-61.66962034

>  <CHROM.1>
-99.45824969,90.83109883,-60.30230494,-62.72569142,168.26271786,59.06654673
175.78838547,64.85719748,178.87318750,64.34879923,12.63032213,-44.02300261
-50.35027989,96.69128961,55.37569021,-47.85130379,-2.19551275,17.69005747
-0.71877171,-0.40897119,-2.34301025

>  <Name>
Forsythoside_E.pdb

>  <RI>
-1.14536e+09

>  <Rbt.Current_Directory>
/root/miniconda3/envs/rdock/share/rxdock-2013.1.1_148c5bd1-0/data/ligands/prepped_ligands/Forsythoside_E

>  <Rbt.Executable>
rbdock/0.1.0

>  <Rbt.Library>
librxdock.so/0.1.0

>  <Rbt.Parameter_File>
/root/miniconda3/envs/rdock/share/rxdock-2013.1.1_148c5bd1-0/data/scripts/dock.prm

>  <Rbt.Receptor>
def.prm

>  <SCORE>
-9.6122

>  <SCORE.INTER>
-15.227

>  <SCORE.INTER.CONST>
1

>  <SCORE.INTER.POLAR>
-2.71927

>  <SCORE.INTER.REPUL>
0.123495

>  <SCORE.INTER.ROT>
7

>  <SCORE.INTER.VDW>
-18.9989

>  <SCORE.INTER.norm>
-0.475843

>  <SCORE.INTRA>
6.19157

>  <SCORE.INTRA.DIHEDRAL>
13.4516

>  <SCORE.INTRA.DIHEDRAL.0>
3.93665

>  <SCORE.INTRA.POLAR>
-0.0302332

>  <SCORE.INTRA.POLAR.0>
0

>  <SCORE.INTRA.REPUL>
0

>  <SCORE.INTRA.REPUL.0>
0

>  <SCORE.INTRA.VDW>
-0.431426

>  <SCORE.INTRA.VDW.0>
-1.0842

>  <SCORE.INTRA.norm>
0.193487

>  <SCORE.RESTR>
0.4564

>  <SCORE.RESTR.CAVITY>
0.4564

>  <SCORE.RESTR.norm>
0.0142625

>  <SCORE.SYSTEM>
-1.03318

>  <SCORE.SYSTEM.CONST>
0

>  <SCORE.SYSTEM.DIHEDRAL>
0.073581

>  <SCORE.SYSTEM.VDW>
-1.06998

>  <SCORE.SYSTEM.norm>
-0.032287

>  <SCORE.heavy>
32

>  <SCORE.norm>
-0.300381

$$$$
Forsythoside_E.pdb
  RxDock  02242101193D
librxdock.so/0.1.0
 40 42  0  0  0  0  0  0  0  0999 V2000
  -47.2566   -2.7129   17.9681 O   0  0  0  0  0  0
  -46.1632   -0.1372   17.8180 O   0  0  0  0  0  0
  -46.7022   -0.2039   20.1279 O   0  0  0  0  0  0
  -45.3751   -1.9154   14.9292 O   0  0  0  0  0  0
  -49.1070   -4.0771   18.3705 O   0  0  0  0  0  0
  -47.9591   -2.7321   13.9217 O   0  0  0  0  0  0
  -49.1219   -4.8235   15.6413 O   0  0  0  0  0  0
  -46.4598    2.6596   20.1175 O   0  0  0  0  0  0
  -48.8884    3.0691   18.8211 O   0  0  0  0  0  0
  -50.2408    0.6763   19.5880 O   0  0  0  0  0  0
  -55.1629   -4.7623   16.2864 O   0  0  0  0  0  0
  -53.9781   -7.2323   15.8167 O   0  0  0  0  0  0
  -46.1055   -2.4448   17.1653 C   0  0  0  0  0  0
  -46.5343   -2.0984   15.7378 C   0  0  0  0  0  0
  -47.3954   -3.2131   15.1432 C   0  0  0  0  0  0
  -48.5182   -3.6136   16.0995 C   0  0  0  0  0  0
  -46.7631    1.9171   18.9353 C   0  0  0  0  0  0
  -46.1032    0.5455   19.0656 C   0  0  0  0  0  0
  -48.2788    1.7808   18.7789 C   0  0  0  0  0  0
  -48.8678    0.9091   19.8882 C   0  0  0  0  0  0
  -47.9881   -3.8493   17.5130 C   0  0  0  0  0  0
  -45.3439   -1.2976   17.8212 C   0  0  0  0  0  0
  -48.1085   -0.4226   19.9708 C   0  0  0  0  0  0
  -48.5630   -1.2675   21.1588 C   0  0  0  0  0  0
  -49.9775   -2.9569   18.3915 C   0  0  0  0  0  0
  -51.3229   -3.3620   18.9826 C   0  0  0  0  0  0
  -52.0343   -4.3915   18.1393 C   0  0  0  0  0  0
  -53.2855   -4.1041   17.5953 C   0  0  0  0  0  0
  -51.4382   -5.6311   17.9026 C   0  0  0  0  0  0
  -53.9417   -5.0555   16.8140 C   0  0  0  0  0  0
  -52.0954   -6.5821   17.1223 C   0  0  0  0  0  0
  -53.3466   -6.2947   16.5782 C   0  0  0  0  0  0
  -45.6685   -1.6837   14.0315 H   0  0  0  0  0  0
  -48.4578   -1.9202   14.1173 H   0  0  0  0  0  0
  -48.4703   -5.5399   15.7346 H   0  0  0  0  0  0
  -45.4921    2.7156   20.1895 H   0  0  0  0  0  0
  -48.6875    3.4604   19.6887 H   0  0  0  0  0  0
  -50.6447    0.2275   20.3507 H   0  0  0  0  0  0
  -55.3770   -5.4179   15.6003 H   0  0  0  0  0  0
  -53.3560   -7.9547   15.6239 H   0  0  0  0  0  0
  1 13  1  0  0  0
  1 21  1  0  0  0
  2 18  1  0  0  0
  2 22  1  0  0  0
  3 18  1  0  0  0
  3 23  1  0  0  0
  4 14  1  0  0  0
  4 33  1  0  0  0
  5 21  1  0  0  0
  5 25  1  0  0  0
  6 15  1  0  0  0
  6 34  1  0  0  0
  7 16  1  0  0  0
  7 35  1  0  0  0
  8 17  1  0  0  0
  8 36  1  0  0  0
  9 19  1  0  0  0
  9 37  1  0  0  0
 10 20  1  0  0  0
 10 38  1  0  0  0
 11 30  1  0  0  0
 11 39  1  0  0  0
 12 32  1  0  0  0
 12 40  1  0  0  0
 13 14  1  0  0  0
 13 22  1  0  0  0
 14 15  1  0  0  0
 15 16  1  0  0  0
 16 21  1  0  0  0
 17 18  1  0  0  0
 19 17  1  0  0  0
 20 19  1  0  0  0
 23 20  1  0  0  0
 23 24  1  0  0  0
 25 26  1  0  0  0
 26 27  1  0  0  0
 27 28  2  0  0  0
 27 29  1  0  0  0
 28 30  1  0  0  0
 29 31  2  0  0  0
 30 32  2  0  0  0
 31 32  1  0  0  0
M  END
>  <CHROM.0>
-66.22921612,-62.44800620,37.85681908

>  <CHROM.1>
-67.62765660,136.62237364,-179.18202256,59.73569685,164.28854427,-56.84008765
67.57722550,58.32276495,-61.04056606,-172.33400655,165.76697823,169.55837352
-63.05777249,-63.66907228,-119.59676215,-49.09391748,-2.23861768,17.74106578
-0.78866961,-0.37231458,-2.45920476

>  <Name>
Forsythoside_E.pdb

>  <RI>
-1.14536e+09

>  <Rbt.Current_Directory>
/root/miniconda3/envs/rdock/share/rxdock-2013.1.1_148c5bd1-0/data/ligands/prepped_ligands/Forsythoside_E

>  <Rbt.Executable>
rbdock/0.1.0

>  <Rbt.Library>
librxdock.so/0.1.0

>  <Rbt.Parameter_File>
/root/miniconda3/envs/rdock/share/rxdock-2013.1.1_148c5bd1-0/data/scripts/dock.prm

>  <Rbt.Receptor>
def.prm

>  <SCORE>
-12.9095

>  <SCORE.INTER>
-15.5825

>  <SCORE.INTER.CONST>
1

>  <SCORE.INTER.POLAR>
-3.49514

>  <SCORE.INTER.REPUL>
0.447209

>  <SCORE.INTER.ROT>
7

>  <SCORE.INTER.VDW>
-18.3351

>  <SCORE.INTER.norm>
-0.486954

>  <SCORE.INTRA>
3.06064

>  <SCORE.INTRA.DIHEDRAL>
5.38376

>  <SCORE.INTRA.DIHEDRAL.0>
3.93665

>  <SCORE.INTRA.POLAR>
-0.1119

>  <SCORE.INTRA.POLAR.0>
0

>  <SCORE.INTRA.REPUL>
0

>  <SCORE.INTRA.REPUL.0>
0

>  <SCORE.INTRA.VDW>
0.749222

>  <SCORE.INTRA.VDW.0>
-1.0842

>  <SCORE.INTRA.norm>
0.0956451

>  <SCORE.RESTR>
0

>  <SCORE.RESTR.CAVITY>
0

>  <SCORE.RESTR.norm>
0

>  <SCORE.SYSTEM>
-0.38759

>  <SCORE.SYSTEM.CONST>
0

>  <SCORE.SYSTEM.DIHEDRAL>
1.22358

>  <SCORE.SYSTEM.VDW>
-0.999381

>  <SCORE.SYSTEM.norm>
-0.0121122

>  <SCORE.heavy>
32

>  <SCORE.norm>
-0.403421

$$$$
Forsythoside_E.pdb
  RxDock  02242101193D
librxdock.so/0.1.0
 40 42  0  0  0  0  0  0  0  0999 V2000
  -49.9382   -2.8922   17.9796 O   0  0  0  0  0  0
  -47.8945   -0.6149   16.9274 O   0  0  0  0  0  0
  -47.6063    0.2992   19.0980 O   0  0  0  0  0  0
  -50.4625    0.4643   16.6123 O   0  0  0  0  0  0
  -51.1648   -4.2013   19.4726 O   0  0  0  0  0  0
  -51.9812    0.4988   19.0722 O   0  0  0  0  0  0
  -53.1218   -2.1630   19.6170 O   0  0  0  0  0  0
  -45.5590   -1.6773   19.4992 O   0  0  0  0  0  0
  -43.6889   -0.3651   17.9094 O   0  0  0  0  0  0
  -44.6664    2.3058   18.1398 O   0  0  0  0  0  0
  -50.1801   -9.7509   20.1057 O   0  0  0  0  0  0
  -48.3371   -9.6392   18.0282 O   0  0  0  0  0  0
  -49.9441   -1.8597   16.9921 C   0  0  0  0  0  0
  -50.3809   -0.5362   17.6239 C   0  0  0  0  0  0
  -51.7429   -0.6814   18.3032 C   0  0  0  0  0  0
  -51.7750   -1.9027   19.2214 C   0  0  0  0  0  0
  -45.9337   -1.2228   18.1977 C   0  0  0  0  0  0
  -47.4106   -0.8355   18.2477 C   0  0  0  0  0  0
  -45.0693   -0.0269   17.7936 C   0  0  0  0  0  0
  -45.3656    1.1862   18.6755 C   0  0  0  0  0  0
  -51.2359   -3.1452   18.5141 C   0  0  0  0  0  0
  -48.5371   -1.7714   16.4100 C   0  0  0  0  0  0
  -46.8753    1.4639   18.6992 C   0  0  0  0  0  0
  -47.2372    2.5748   19.6824 C   0  0  0  0  0  0
  -52.3870   -4.9186   19.5417 C   0  0  0  0  0  0
  -52.5165   -5.8320   18.3281 C   0  0  0  0  0  0
  -51.4032   -6.8478   18.2523 C   0  0  0  0  0  0
  -51.2988   -7.8426   19.2237 C   0  0  0  0  0  0
  -50.4788   -6.7920   17.2080 C   0  0  0  0  0  0
  -50.2705   -8.7826   19.1518 C   0  0  0  0  0  0
  -49.4505   -7.7316   17.1375 C   0  0  0  0  0  0
  -49.3462   -8.7264   18.1089 C   0  0  0  0  0  0
  -49.5706    0.5966   16.2480 H   0  0  0  0  0  0
  -51.2534    0.5968   19.7102 H   0  0  0  0  0  0
  -53.6410   -2.3489   18.8156 H   0  0  0  0  0  0
  -44.6050   -1.8627   19.4827 H   0  0  0  0  0  0
  -43.1729    0.3951   17.5899 H   0  0  0  0  0  0
  -43.7192    2.1881   18.3273 H   0  0  0  0  0  0
  -50.7668   -9.5210   20.8468 H   0  0  0  0  0  0
  -47.8464   -9.4961   17.2008 H   0  0  0  0  0  0
  1 13  1  0  0  0
  1 21  1  0  0  0
  2 18  1  0  0  0
  2 22  1  0  0  0
  3 18  1  0  0  0
  3 23  1  0  0  0
  4 14  1  0  0  0
  4 33  1  0  0  0
  5 21  1  0  0  0
  5 25  1  0  0  0
  6 15  1  0  0  0
  6 34  1  0  0  0
  7 16  1  0  0  0
  7 35  1  0  0  0
  8 17  1  0  0  0
  8 36  1  0  0  0
  9 19  1  0  0  0
  9 37  1  0  0  0
 10 20  1  0  0  0
 10 38  1  0  0  0
 11 30  1  0  0  0
 11 39  1  0  0  0
 12 32  1  0  0  0
 12 40  1  0  0  0
 13 14  1  0  0  0
 13 22  1  0  0  0
 14 15  1  0  0  0
 15 16  1  0  0  0
 16 21  1  0  0  0
 17 18  1  0  0  0
 19 17  1  0  0  0
 20 19  1  0  0  0
 23 20  1  0  0  0
 23 24  1  0  0  0
 25 26  1  0  0  0
 26 27  1  0  0  0
 27 28  2  0  0  0
 27 29  1  0  0  0
 28 30  1  0  0  0
 29 31  2  0  0  0
 30 32  2  0  0  0
 31 32  1  0  0  0
M  END
>  <CHROM.0>
45.75080021,61.26315452,-58.64401319

>  <CHROM.1>
-140.13072586,78.97630060,-63.47038418,-151.29126185,75.59163431,-57.84093096
61.06378094,-176.01144175,176.34076367,-72.59421204,-12.72393164,174.83232161
-105.20600344,60.69506499,66.12587181,-49.10757593,-2.77316105,18.38696606
2.02259450,-0.06847247,3.13036616

>  <Name>
Forsythoside_E.pdb

>  <RI>
-1.14536e+09

>  <Rbt.Current_Directory>
/root/miniconda3/envs/rdock/share/rxdock-2013.1.1_148c5bd1-0/data/ligands/prepped_ligands/Forsythoside_E

>  <Rbt.Executable>
rbdock/0.1.0

>  <Rbt.Library>
librxdock.so/0.1.0

>  <Rbt.Parameter_File>
/root/miniconda3/envs/rdock/share/rxdock-2013.1.1_148c5bd1-0/data/scripts/dock.prm

>  <Rbt.Receptor>
def.prm

>  <SCORE>
-4.75696

>  <SCORE.INTER>
-11.7854

>  <SCORE.INTER.CONST>
1

>  <SCORE.INTER.POLAR>
-2.22219

>  <SCORE.INTER.REPUL>
0.0393687

>  <SCORE.INTER.ROT>
7

>  <SCORE.INTER.VDW>
-16.8268

>  <SCORE.INTER.norm>
-0.368294

>  <SCORE.INTRA>
7.70997

>  <SCORE.INTRA.DIHEDRAL>
14.0907

>  <SCORE.INTRA.DIHEDRAL.0>
3.93665

>  <SCORE.INTRA.POLAR>
-0.42871

>  <SCORE.INTRA.POLAR.0>
0

>  <SCORE.INTRA.REPUL>
0

>  <SCORE.INTRA.REPUL.0>
0

>  <SCORE.INTRA.VDW>
2.12221

>  <SCORE.INTRA.VDW.0>
-1.0842

>  <SCORE.INTRA.norm>
0.240936

>  <SCORE.RESTR>
0.000890708

>  <SCORE.RESTR.CAVITY>
0.000890708

>  <SCORE.RESTR.norm>
2.78346e-05

>  <SCORE.SYSTEM>
-0.682404

>  <SCORE.SYSTEM.CONST>
0

>  <SCORE.SYSTEM.DIHEDRAL>
0.499228

>  <SCORE.SYSTEM.POLAR>
-0.00413142

>  <SCORE.SYSTEM.VDW>
-0.917971

>  <SCORE.SYSTEM.norm>
-0.0213251

>  <SCORE.heavy>
32

>  <SCORE.norm>
-0.148655

$$$$
Forsythoside_E.pdb
  RxDock  02242101193D
librxdock.so/0.1.0
 40 42  0  0  0  0  0  0  0  0999 V2000
  -48.1267   -0.8756   17.9170 O   0  0  0  0  0  0
  -49.9236   -2.3788   19.7877 O   0  0  0  0  0  0
  -51.0705   -4.1077   20.9392 O   0  0  0  0  0  0
  -49.0231    1.4707   20.5819 O   0  0  0  0  0  0
  -46.3354   -0.9637   16.4235 O   0  0  0  0  0  0
  -47.3266    3.0436   18.8478 O   0  0  0  0  0  0
  -45.2441    1.3508   17.6310 O   0  0  0  0  0  0
  -53.4167   -3.3264   19.4749 O   0  0  0  0  0  0
  -52.5694   -4.4859   17.0907 O   0  0  0  0  0  0
  -50.8238   -6.4872   18.1348 O   0  0  0  0  0  0
  -50.1281   -0.2051   12.8501 O   0  0  0  0  0  0
  -52.0711   -1.9979   13.7079 O   0  0  0  0  0  0
  -48.6164   -0.4575   19.1924 C   0  0  0  0  0  0
  -48.6119    1.0704   19.2774 C   0  0  0  0  0  0
  -47.2163    1.6266   18.9936 C   0  0  0  0  0  0
  -46.6320    1.0269   17.7151 C   0  0  0  0  0  0
  -52.0971   -3.0664   18.9933 C   0  0  0  0  0  0
  -51.1869   -2.8836   20.2064 C   0  0  0  0  0  0
  -51.6200   -4.2311   18.1237 C   0  0  0  0  0  0
  -51.4334   -5.4979   18.9589 C   0  0  0  0  0  0
  -46.7696   -0.4947   17.7005 C   0  0  0  0  0  0
  -50.0210   -1.0289   19.3562 C   0  0  0  0  0  0
  -50.5468   -5.2002   20.1763 C   0  0  0  0  0  0
  -50.4508   -6.3966   21.1203 C   0  0  0  0  0  0
  -46.2725   -2.3807   16.3883 C   0  0  0  0  0  0
  -46.6274   -2.8767   14.9912 C   0  0  0  0  0  0
  -48.0775   -2.6384   14.6482 C   0  0  0  0  0  0
  -48.4430   -1.5195   13.9009 C   0  0  0  0  0  0
  -49.0526   -3.5398   15.0781 C   0  0  0  0  0  0
  -49.7835   -1.3008   13.5824 C   0  0  0  0  0  0
  -50.3926   -3.3199   14.7601 C   0  0  0  0  0  0
  -50.7582   -2.2009   14.0127 C   0  0  0  0  0  0
  -48.3804    1.1182   21.2209 H   0  0  0  0  0  0
  -47.6632    3.4089   19.6841 H   0  0  0  0  0  0
  -45.1542    2.3161   17.7114 H   0  0  0  0  0  0
  -54.0293   -3.2171   18.7282 H   0  0  0  0  0  0
  -53.4223   -4.6779   17.5172 H   0  0  0  0  0  0
  -50.0261   -6.0984   17.7363 H   0  0  0  0  0  0
  -49.3183    0.2508   12.5624 H   0  0  0  0  0  0
  -52.6128   -2.6395   14.1987 H   0  0  0  0  0  0
  1 13  1  0  0  0
  1 21  1  0  0  0
  2 18  1  0  0  0
  2 22  1  0  0  0
  3 18  1  0  0  0
  3 23  1  0  0  0
  4 14  1  0  0  0
  4 33  1  0  0  0
  5 21  1  0  0  0
  5 25  1  0  0  0
  6 15  1  0  0  0
  6 34  1  0  0  0
  7 16  1  0  0  0
  7 35  1  0  0  0
  8 17  1  0  0  0
  8 36  1  0  0  0
  9 19  1  0  0  0
  9 37  1  0  0  0
 10 20  1  0  0  0
 10 38  1  0  0  0
 11 30  1  0  0  0
 11 39  1  0  0  0
 12 32  1  0  0  0
 12 40  1  0  0  0
 13 14  1  0  0  0
 13 22  1  0  0  0
 14 15  1  0  0  0
 15 16  1  0  0  0
 16 21  1  0  0  0
 17 18  1  0  0  0
 19 17  1  0  0  0
 20 19  1  0  0  0
 23 20  1  0  0  0
 23 24  1  0  0  0
 25 26  1  0  0  0
 26 27  1  0  0  0
 27 28  2  0  0  0
 27 29  1  0  0  0
 28 30  1  0  0  0
 29 31  2  0  0  0
 30 32  2  0  0  0
 31 32  1  0  0  0
M  END
>  <CHROM.0>
62.09173927,65.00219386,176.48208241

>  <CHROM.1>
-165.84777944,168.62032602,61.69871681,-66.93429210,146.69708659,61.22130246
-54.08511281,165.76494970,-58.01291895,52.36162307,5.88446897,-171.39479416
81.79135135,-68.21627518,97.22501696,-49.42126295,-1.98062135,17.57056366
-0.18424171,0.89434697,1.47612549

>  <Name>
Forsythoside_E.pdb

>  <RI>
-1.14536e+09

>  <Rbt.Current_Directory>
/root/miniconda3/envs/rdock/share/rxdock-2013.1.1_148c5bd1-0/data/ligands/prepped_ligands/Forsythoside_E

>  <Rbt.Executable>
rbdock/0.1.0

>  <Rbt.Library>
librxdock.so/0.1.0

>  <Rbt.Parameter_File>
/root/miniconda3/envs/rdock/share/rxdock-2013.1.1_148c5bd1-0/data/scripts/dock.prm

>  <Rbt.Receptor>
def.prm

>  <SCORE>
-6.86759

>  <SCORE.INTER>
-8.89145

>  <SCORE.INTER.CONST>
1

>  <SCORE.INTER.POLAR>
-1.55785

>  <SCORE.INTER.REPUL>
0.414074

>  <SCORE.INTER.ROT>
7

>  <SCORE.INTER.VDW>
-18.0651

>  <SCORE.INTER.norm>
-0.277858

>  <SCORE.INTRA>
3.03394

>  <SCORE.INTRA.DIHEDRAL>
6.26437

>  <SCORE.INTRA.DIHEDRAL.0>
3.93665

>  <SCORE.INTRA.POLAR>
0

>  <SCORE.INTRA.POLAR.0>
0

>  <SCORE.INTRA.REPUL>
0

>  <SCORE.INTRA.REPUL.0>
0

>  <SCORE.INTRA.VDW>
-0.0982442

>  <SCORE.INTRA.VDW.0>
-1.0842

>  <SCORE.INTRA.norm>
0.0948106

>  <SCORE.RESTR>
0

>  <SCORE.RESTR.CAVITY>
0

>  <SCORE.RESTR.norm>
0

>  <SCORE.SYSTEM>
-1.01008

>  <SCORE.SYSTEM.CONST>
0

>  <SCORE.SYSTEM.DIHEDRAL>
0.165517

>  <SCORE.SYSTEM.VDW>
-1.09284

>  <SCORE.SYSTEM.norm>
-0.031565

>  <SCORE.heavy>
32

>  <SCORE.norm>
-0.214612

$$$$
Forsythoside_E.pdb
  RxDock  02242101203D
librxdock.so/0.1.0
 40 42  0  0  0  0  0  0  0  0999 V2000
  -47.9323   -1.4767   17.8782 O   0  0  0  0  0  0
  -49.7589   -3.0293   18.9188 O   0  0  0  0  0  0
  -50.8092   -5.1483   19.1119 O   0  0  0  0  0  0
  -49.1040    1.0056   20.3023 O   0  0  0  0  0  0
  -46.0803   -1.5509   16.4599 O   0  0  0  0  0  0
  -47.4575    2.5550   18.5002 O   0  0  0  0  0  0
  -45.2100    0.9309   17.5034 O   0  0  0  0  0  0
  -53.3031   -3.7889   18.6745 O   0  0  0  0  0  0
  -52.8748   -3.4416   15.9464 O   0  0  0  0  0  0
  -51.0971   -5.6217   15.4677 O   0  0  0  0  0  0
  -47.6048    0.4411   12.7612 O   0  0  0  0  0  0
  -50.2547    0.9336   13.4399 O   0  0  0  0  0  0
  -48.5023   -0.9936   19.0961 C   0  0  0  0  0  0
  -48.6123    0.5320   19.0513 C   0  0  0  0  0  0
  -47.2505    1.1672   18.7694 C   0  0  0  0  0  0
  -46.5729    0.5107   17.5671 C   0  0  0  0  0  0
  -52.0573   -3.2599   18.2171 C   0  0  0  0  0  0
  -50.9706   -3.7279   19.1834 C   0  0  0  0  0  0
  -51.7722   -3.7502   16.7963 C   0  0  0  0  0  0
  -51.5285   -5.2593   16.7761 C   0  0  0  0  0  0
  -46.5989   -1.0130   17.6769 C   0  0  0  0  0  0
  -49.8672   -1.6545   19.2595 C   0  0  0  0  0  0
  -50.4587   -5.6339   17.8114 C   0  0  0  0  0  0
  -50.2850   -7.1462   17.9329 C   0  0  0  0  0  0
  -46.1637   -2.9672   16.4449 C   0  0  0  0  0  0
  -47.4745   -3.3984   15.7972 C   0  0  0  0  0  0
  -48.2118   -2.2420   15.1677 C   0  0  0  0  0  0
  -47.5645   -1.4207   14.2454 C   0  0  0  0  0  0
  -49.5429   -1.9961   15.5078 C   0  0  0  0  0  0
  -48.2473   -0.3531   13.6623 C   0  0  0  0  0  0
  -50.2245   -0.9279   14.9251 C   0  0  0  0  0  0
  -49.5772   -0.1066   14.0028 C   0  0  0  0  0  0
  -50.0332    0.7305   20.3835 H   0  0  0  0  0  0
  -46.6106    2.9374   18.2128 H   0  0  0  0  0  0
  -44.7930    0.4882   16.7441 H   0  0  0  0  0  0
  -54.0070   -3.3931   18.1336 H   0  0  0  0  0  0
  -53.6547   -3.9045   16.2981 H   0  0  0  0  0  0
  -51.0627   -6.5927   15.4193 H   0  0  0  0  0  0
  -46.7712    0.0132   12.4999 H   0  0  0  0  0  0
  -49.6707    1.3863   12.8075 H   0  0  0  0  0  0
  1 13  1  0  0  0
  1 21  1  0  0  0
  2 18  1  0  0  0
  2 22  1  0  0  0
  3 18  1  0  0  0
  3 23  1  0  0  0
  4 14  1  0  0  0
  4 33  1  0  0  0
  5 21  1  0  0  0
  5 25  1  0  0  0
  6 15  1  0  0  0
  6 34  1  0  0  0
  7 16  1  0  0  0
  7 35  1  0  0  0
  8 17  1  0  0  0
  8 36  1  0  0  0
  9 19  1  0  0  0
  9 37  1  0  0  0
 10 20  1  0  0  0
 10 38  1  0  0  0
 11 30  1  0  0  0
 11 39  1  0  0  0
 12 32  1  0  0  0
 12 40  1  0  0  0
 13 14  1  0  0  0
 13 22  1  0  0  0
 14 15  1  0  0  0
 15 16  1  0  0  0
 16 21  1  0  0  0
 17 18  1  0  0  0
 19 17  1  0  0  0
 20 19  1  0  0  0
 23 20  1  0  0  0
 23 24  1  0  0  0
 25 26  1  0  0  0
 26 27  1  0  0  0
 27 28  2  0  0  0
 27 29  1  0  0  0
 28 30  1  0  0  0
 29 31  2  0  0  0
 30 32  2  0  0  0
 31 32  1  0  0  0
M  END
>  <CHROM.0>
-65.07606038,58.44275538,64.45809600

>  <CHROM.1>
-167.98586098,174.01535177,-69.26123854,-55.18191360,92.20320373,-173.05898463
178.83758909,172.36365953,-60.95707011,-172.16670598,12.47232638,1.44165771
42.90694381,8.80189353,53.57841189,-49.17249521,-1.91884226,16.98496191,-0.12460921
0.90027938,1.54130397

>  <Name>
Forsythoside_E.pdb

>  <RI>
-1.14536e+09

>  <Rbt.Current_Directory>
/root/miniconda3/envs/rdock/share/rxdock-2013.1.1_148c5bd1-0/data/ligands/prepped_ligands/Forsythoside_E

>  <Rbt.Executable>
rbdock/0.1.0

>  <Rbt.Library>
librxdock.so/0.1.0

>  <Rbt.Parameter_File>
/root/miniconda3/envs/rdock/share/rxdock-2013.1.1_148c5bd1-0/data/scripts/dock.prm

>  <Rbt.Receptor>
def.prm

>  <SCORE>
-17.9867

>  <SCORE.INTER>
-22.3774

>  <SCORE.INTER.CONST>
1

>  <SCORE.INTER.POLAR>
-4.40711

>  <SCORE.INTER.REPUL>
0.146871

>  <SCORE.INTER.ROT>
7

>  <SCORE.INTER.VDW>
-20.5276

>  <SCORE.INTER.norm>
-0.699293

>  <SCORE.INTRA>
5.23186

>  <SCORE.INTRA.DIHEDRAL>
9.54279

>  <SCORE.INTRA.DIHEDRAL.0>
3.93665

>  <SCORE.INTRA.POLAR>
-0.161469

>  <SCORE.INTRA.POLAR.0>
0

>  <SCORE.INTRA.REPUL>
0

>  <SCORE.INTRA.REPUL.0>
0

>  <SCORE.INTRA.VDW>
1.00946

>  <SCORE.INTRA.VDW.0>
-1.0842

>  <SCORE.INTRA.norm>
0.163496

>  <SCORE.RESTR>
0.00404165

>  <SCORE.RESTR.CAVITY>
0.00404165

>  <SCORE.RESTR.norm>
0.000126302

>  <SCORE.SYSTEM>
-0.845176

>  <SCORE.SYSTEM.CONST>
0

>  <SCORE.SYSTEM.DIHEDRAL>
0.124279

>  <SCORE.SYSTEM.POLAR>
-0.0101231

>  <SCORE.SYSTEM.VDW>
-0.872897

>  <SCORE.SYSTEM.norm>
-0.0264118

>  <SCORE.heavy>
32

>  <SCORE.norm>
-0.562083

$$$$
Forsythoside_E.pdb
  RxDock  02242101203D
librxdock.so/0.1.0
 40 42  0  0  0  0  0  0  0  0999 V2000
  -49.4128   -3.3637   19.1593 O   0  0  0  0  0  0
  -47.3455   -1.7356   18.5004 O   0  0  0  0  0  0
  -46.4939   -0.1350   16.9696 O   0  0  0  0  0  0
  -51.3679   -0.3157   18.6137 O   0  0  0  0  0  0
  -50.0077   -5.6131   19.3415 O   0  0  0  0  0  0
  -53.2955   -2.1557   19.7351 O   0  0  0  0  0  0
  -52.7094   -4.9129   18.8763 O   0  0  0  0  0  0
  -44.0060   -0.3092   18.3976 O   0  0  0  0  0  0
  -43.3181   -2.7796   17.3158 O   0  0  0  0  0  0
  -44.8013   -2.6570   14.8812 O   0  0  0  0  0  0
  -54.5534   -6.7259   16.5894 O   0  0  0  0  0  0
  -53.9929   -4.7363   14.7314 O   0  0  0  0  0  0
  -49.7171   -2.0732   18.6271 C   0  0  0  0  0  0
  -51.0352   -1.5642   19.2149 C   0  0  0  0  0  0
  -52.1644   -2.5639   18.9637 C   0  0  0  0  0  0
  -51.7520   -3.9775   19.3730 C   0  0  0  0  0  0
  -44.9611   -1.3716   18.4000 C   0  0  0  0  0  0
  -46.3488   -0.7497   18.2541 C   0  0  0  0  0  0
  -44.6717   -2.3363   17.2485 C   0  0  0  0  0  0
  -44.9142   -1.6645   15.8968 C   0  0  0  0  0  0
  -50.3834   -4.3454   18.8020 C   0  0  0  0  0  0
  -48.5523   -1.1488   18.9664 C   0  0  0  0  0  0
  -46.3119   -1.0302   15.8672 C   0  0  0  0  0  0
  -46.5460   -0.2211   14.5935 C   0  0  0  0  0  0
  -49.0639   -6.2687   18.5094 C   0  0  0  0  0  0
  -49.7846   -7.2355   17.5768 C   0  0  0  0  0  0
  -50.9089   -6.5726   16.8194 C   0  0  0  0  0  0
  -52.2288   -6.9574   17.0516 C   0  0  0  0  0  0
  -50.6268   -5.5726   15.8875 C   0  0  0  0  0  0
  -53.2678   -6.3427   16.3525 C   0  0  0  0  0  0
  -51.6662   -4.9592   15.1884 C   0  0  0  0  0  0
  -52.9861   -5.3441   15.4206 C   0  0  0  0  0  0
  -52.2392   -0.0435   18.9489 H   0  0  0  0  0  0
  -54.0998   -2.4328   19.2633 H   0  0  0  0  0  0
  -52.8056   -5.6237   19.5335 H   0  0  0  0  0  0
  -44.0367    0.1118   17.5220 H   0  0  0  0  0  0
  -43.1874   -3.4319   16.6062 H   0  0  0  0  0  0
  -45.4972   -3.3204   15.0287 H   0  0  0  0  0  0
  -55.1467   -6.2212   16.0067 H   0  0  0  0  0  0
  -53.6756   -3.8797   14.3975 H   0  0  0  0  0  0
  1 13  1  0  0  0
  1 21  1  0  0  0
  2 18  1  0  0  0
  2 22  1  0  0  0
  3 18  1  0  0  0
  3 23  1  0  0  0
  4 14  1  0  0  0
  4 33  1  0  0  0
  5 21  1  0  0  0
  5 25  1  0  0  0
  6 15  1  0  0  0
  6 34  1  0  0  0
  7 16  1  0  0  0
  7 35  1  0  0  0
  8 17  1  0  0  0
  8 36  1  0  0  0
  9 19  1  0  0  0
  9 37  1  0  0  0
 10 20  1  0  0  0
 10 38  1  0  0  0
 11 30  1  0  0  0
 11 39  1  0  0  0
 12 32  1  0  0  0
 12 40  1  0  0  0
 13 14  1  0  0  0
 13 22  1  0  0  0
 14 15  1  0  0  0
 15 16  1  0  0  0
 16 21  1  0  0  0
 17 18  1  0  0  0
 19 17  1  0  0  0
 20 19  1  0  0  0
 23 20  1  0  0  0
 23 24  1  0  0  0
 25 26  1  0  0  0
 26 27  1  0  0  0
 27 28  2  0  0  0
 27 29  1  0  0  0
 28 30  1  0  0  0
 29 31  2  0  0  0
 30 32  2  0  0  0
 31 32  1  0  0  0
M  END
>  <CHROM.0>
58.07798668,-62.51606794,-66.16237642

>  <CHROM.1>
-82.73998048,154.91015297,175.71563129,-82.76647465,-95.55134692,149.70472175
-144.17285087,-65.04522907,176.42410138,62.50369067,-178.41059349,159.04724189
53.97398265,52.26818068,-114.35874882,-49.32343249,-3.30871756,17.51909903
2.75199528,-0.31384319,-2.53515855

>  <Name>
Forsythoside_E.pdb

>  <RI>
-1.14536e+09

>  <Rbt.Current_Directory>
/root/miniconda3/envs/rdock/share/rxdock-2013.1.1_148c5bd1-0/data/ligands/prepped_ligands/Forsythoside_E

>  <Rbt.Executable>
rbdock/0.1.0

>  <Rbt.Library>
librxdock.so/0.1.0

>  <Rbt.Parameter_File>
/root/miniconda3/envs/rdock/share/rxdock-2013.1.1_148c5bd1-0/data/scripts/dock.prm

>  <Rbt.Receptor>
def.prm

>  <SCORE>
-8.27171

>  <SCORE.INTER>
-14.1689

>  <SCORE.INTER.CONST>
1

>  <SCORE.INTER.POLAR>
-1.98156

>  <SCORE.INTER.REPUL>
0.0355571

>  <SCORE.INTER.ROT>
7

>  <SCORE.INTER.VDW>
-20.0094

>  <SCORE.INTER.norm>
-0.442779

>  <SCORE.INTRA>
6.86447

>  <SCORE.INTRA.DIHEDRAL>
18.2883

>  <SCORE.INTRA.DIHEDRAL.0>
3.93665

>  <SCORE.INTRA.POLAR>
-0.139319

>  <SCORE.INTRA.POLAR.0>
0

>  <SCORE.INTRA.REPUL>
0

>  <SCORE.INTRA.REPUL.0>
0

>  <SCORE.INTRA.VDW>
-1.80599

>  <SCORE.INTRA.VDW.0>
-1.0842

>  <SCORE.INTRA.norm>
0.214515

>  <SCORE.RESTR>
0.0618594

>  <SCORE.RESTR.CAVITY>
0.0618594

>  <SCORE.RESTR.norm>
0.00193311

>  <SCORE.SYSTEM>
-1.0291

>  <SCORE.SYSTEM.CONST>
0

>  <SCORE.SYSTEM.DIHEDRAL>
0.139744

>  <SCORE.SYSTEM.VDW>
-1.09897

>  <SCORE.SYSTEM.norm>
-0.0321594

>  <SCORE.heavy>
32

>  <SCORE.norm>
-0.258491

$$$$
Forsythoside_E.pdb
  RxDock  02242101203D
librxdock.so/0.1.0
 40 42  0  0  0  0  0  0  0  0999 V2000
  -50.6136   -1.8520   16.9259 O   0  0  0  0  0  0
  -51.6423   -4.6052   17.1609 O   0  0  0  0  0  0
  -51.5634   -5.3648   19.4075 O   0  0  0  0  0  0
  -53.0646   -3.2312   14.5804 O   0  0  0  0  0  0
  -48.8749   -0.3154   16.6751 O   0  0  0  0  0  0
  -50.8924   -2.3961   12.8647 O   0  0  0  0  0  0
  -49.5836    0.0083   13.9550 O   0  0  0  0  0  0
  -52.0009   -8.0106   18.3743 O   0  0  0  0  0  0
  -49.4003   -8.2954   17.4244 O   0  0  0  0  0  0
  -48.0590   -6.4837   19.1740 O   0  0  0  0  0  0
  -44.0052   -1.9596   19.8854 O   0  0  0  0  0  0
  -43.0699   -2.1454   17.2748 O   0  0  0  0  0  0
  -51.8869   -2.3191   16.4765 C   0  0  0  0  0  0
  -51.7732   -2.8465   15.0444 C   0  0  0  0  0  0
  -51.1993   -1.7767   14.1151 C   0  0  0  0  0  0
  -49.9310   -1.1578   14.7018 C   0  0  0  0  0  0
  -51.4200   -6.9714   17.5846 C   0  0  0  0  0  0
  -51.9939   -5.6418   18.0708 C   0  0  0  0  0  0
  -49.8972   -6.9944   17.7304 C   0  0  0  0  0  0
  -49.4771   -6.6168   19.1511 C   0  0  0  0  0  0
  -50.1343   -0.7488   16.1599 C   0  0  0  0  0  0
  -52.3468   -3.4047   17.4441 C   0  0  0  0  0  0
  -50.1418   -5.2959   19.5633 C   0  0  0  0  0  0
  -49.8706   -4.9510   21.0260 C   0  0  0  0  0  0
  -48.9959    0.1488   18.0103 C   0  0  0  0  0  0
  -47.7195    0.8746   18.4201 C   0  0  0  0  0  0
  -46.4791    0.0697   18.1190 C   0  0  0  0  0  0
  -45.8023   -0.5811   19.1497 C   0  0  0  0  0  0
  -46.0108   -0.0244   16.8076 C   0  0  0  0  0  0
  -44.6568   -1.3267   18.8703 C   0  0  0  0  0  0
  -44.8649   -0.7692   16.5293 C   0  0  0  0  0  0
  -44.1880   -1.4200   17.5600 C   0  0  0  0  0  0
  -53.3561   -3.9972   15.1038 H   0  0  0  0  0  0
  -50.2085   -3.0700   13.0203 H   0  0  0  0  0  0
  -49.4338   -0.2584   13.0316 H   0  0  0  0  0  0
  -51.7711   -7.8378   19.3028 H   0  0  0  0  0  0
  -49.7103   -8.5252   16.5315 H   0  0  0  0  0  0
  -47.8022   -5.8676   18.4664 H   0  0  0  0  0  0
  -44.3635   -1.6480   20.7345 H   0  0  0  0  0  0
  -42.7787   -2.6077   18.0794 H   0  0  0  0  0  0
  1 13  1  0  0  0
  1 21  1  0  0  0
  2 18  1  0  0  0
  2 22  1  0  0  0
  3 18  1  0  0  0
  3 23  1  0  0  0
  4 14  1  0  0  0
  4 33  1  0  0  0
  5 21  1  0  0  0
  5 25  1  0  0  0
  6 15  1  0  0  0
  6 34  1  0  0  0
  7 16  1  0  0  0
  7 35  1  0  0  0
  8 17  1  0  0  0
  8 36  1  0  0  0
  9 19  1  0  0  0
  9 37  1  0  0  0
 10 20  1  0  0  0
 10 38  1  0  0  0
 11 30  1  0  0  0
 11 39  1  0  0  0
 12 32  1  0  0  0
 12 40  1  0  0  0
 13 14  1  0  0  0
 13 22  1  0  0  0
 14 15  1  0  0  0
 15 16  1  0  0  0
 16 21  1  0  0  0
 17 18  1  0  0  0
 19 17  1  0  0  0
 20 19  1  0  0  0
 23 20  1  0  0  0
 23 24  1  0  0  0
 25 26  1  0  0  0
 26 27  1  0  0  0
 27 28  2  0  0  0
 27 29  1  0  0  0
 28 30  1  0  0  0
 29 31  2  0  0  0
 30 32  2  0  0  0
 31 32  1  0  0  0
M  END
>  <CHROM.0>
-53.06761993,-62.41953766,-173.04578990

>  <CHROM.1>
-66.71910149,177.67751293,-66.59416803,-62.58490298,-167.82293621,-62.70500165
-59.84200779,-59.41188787,55.82784297,52.99634241,-10.89218247,5.97758501
-77.09686706,-49.88803392,-103.90851620,-49.15908135,-3.09638205,17.29857547
2.55037369,0.46560875,2.56569831

>  <Name>
Forsythoside_E.pdb

>  <RI>
-1.14536e+09

>  <Rbt.Current_Directory>
/root/miniconda3/envs/rdock/share/rxdock-2013.1.1_148c5bd1-0/data/ligands/prepped_ligands/Forsythoside_E

>  <Rbt.Executable>
rbdock/0.1.0

>  <Rbt.Library>
librxdock.so/0.1.0

>  <Rbt.Parameter_File>
/root/miniconda3/envs/rdock/share/rxdock-2013.1.1_148c5bd1-0/data/scripts/dock.prm

>  <Rbt.Receptor>
def.prm

>  <SCORE>
-11.2171

>  <SCORE.INTER>
-10.6719

>  <SCORE.INTER.CONST>
1

>  <SCORE.INTER.POLAR>
-0.335578

>  <SCORE.INTER.REPUL>
0.00194826

>  <SCORE.INTER.ROT>
7

>  <SCORE.INTER.VDW>
-21.9407

>  <SCORE.INTER.norm>
-0.333497

>  <SCORE.INTRA>
0.414484

>  <SCORE.INTRA.DIHEDRAL>
0.0174403

>  <SCORE.INTRA.DIHEDRAL.0>
3.93665

>  <SCORE.INTRA.POLAR>
-0.138738

>  <SCORE.INTRA.POLAR.0>
0

>  <SCORE.INTRA.REPUL>
0

>  <SCORE.INTRA.REPUL.0>
0

>  <SCORE.INTRA.VDW>
0.877475

>  <SCORE.INTRA.VDW.0>
-1.0842

>  <SCORE.INTRA.norm>
0.0129526

>  <SCORE.RESTR>
0

>  <SCORE.RESTR.CAVITY>
0

>  <SCORE.RESTR.norm>
0

>  <SCORE.SYSTEM>
-0.959719

>  <SCORE.SYSTEM.CONST>
0

>  <SCORE.SYSTEM.DIHEDRAL>
0.253774

>  <SCORE.SYSTEM.POLAR>
-0.0149655

>  <SCORE.SYSTEM.VDW>
-1.03572

>  <SCORE.SYSTEM.norm>
-0.0299912

>  <SCORE.heavy>
32

>  <SCORE.norm>
-0.350535

$$$$
Forsythoside_E.pdb
  RxDock  02242101203D
librxdock.so/0.1.0
 40 42  0  0  0  0  0  0  0  0999 V2000
  -47.3909   -2.4248   15.2993 O   0  0  0  0  0  0
  -46.3266   -0.2457   16.4528 O   0  0  0  0  0  0
  -44.1518   -0.0161   17.3739 O   0  0  0  0  0  0
  -48.1608    0.6032   13.3891 O   0  0  0  0  0  0
  -48.5443   -4.4282   15.6207 O   0  0  0  0  0  0
  -50.7620   -0.5619   13.8738 O   0  0  0  0  0  0
  -50.5864   -3.5033   13.8945 O   0  0  0  0  0  0
  -45.1308    2.3228   18.7266 O   0  0  0  0  0  0
  -46.5690    0.8796   20.6227 O   0  0  0  0  0  0
  -45.0770   -1.5526   20.5942 O   0  0  0  0  0  0
  -53.9268   -3.7819   19.1890 O   0  0  0  0  0  0
  -54.9069   -4.4691   16.6805 O   0  0  0  0  0  0
  -47.1350   -1.3005   14.4557 C   0  0  0  0  0  0
  -48.4082   -0.4663   14.2979 C   0  0  0  0  0  0
  -49.5581   -1.3240   13.7693 C   0  0  0  0  0  0
  -49.7006   -2.6146   14.5754 C   0  0  0  0  0  0
  -45.9980    1.2694   18.3033 C   0  0  0  0  0  0
  -45.3855    0.6361   17.0553 C   0  0  0  0  0  0
  -46.1487    0.2363   19.4216 C   0  0  0  0  0  0
  -44.8288   -0.4918   19.6764 C   0  0  0  0  0  0
  -48.3544   -3.3174   14.7437 C   0  0  0  0  0  0
  -46.0064   -0.4953   15.0915 C   0  0  0  0  0  0
  -44.2716   -1.0485   18.3587 C   0  0  0  0  0  0
  -42.8823   -1.6569   18.5367 C   0  0  0  0  0  0
  -48.5331   -4.0204   16.9797 C   0  0  0  0  0  0
  -49.3825   -4.9756   17.8103 C   0  0  0  0  0  0
  -50.8558   -4.8404   17.5133 C   0  0  0  0  0  0
  -51.7256   -4.3706   18.4966 C   0  0  0  0  0  0
  -51.3471   -5.1843   16.2531 C   0  0  0  0  0  0
  -53.0872   -4.2439   18.2208 C   0  0  0  0  0  0
  -52.7088   -5.0583   15.9785 C   0  0  0  0  0  0
  -53.5786   -4.5884   16.9618 C   0  0  0  0  0  0
  -48.9914    1.0949   13.2704 H   0  0  0  0  0  0
  -50.8682   -0.2889   14.8014 H   0  0  0  0  0  0
  -51.4619   -3.0814   13.8504 H   0  0  0  0  0  0
  -45.0932    2.9786   18.0101 H   0  0  0  0  0  0
  -46.6840    0.1906   21.2997 H   0  0  0  0  0  0
  -44.2241   -1.9625   20.8197 H   0  0  0  0  0  0
  -54.6488   -3.2824   18.7700 H   0  0  0  0  0  0
  -55.0737   -4.8161   15.7874 H   0  0  0  0  0  0
  1 13  1  0  0  0
  1 21  1  0  0  0
  2 18  1  0  0  0
  2 22  1  0  0  0
  3 18  1  0  0  0
  3 23  1  0  0  0
  4 14  1  0  0  0
  4 33  1  0  0  0
  5 21  1  0  0  0
  5 25  1  0  0  0
  6 15  1  0  0  0
  6 34  1  0  0  0
  7 16  1  0  0  0
  7 35  1  0  0  0
  8 17  1  0  0  0
  8 36  1  0  0  0
  9 19  1  0  0  0
  9 37  1  0  0  0
 10 20  1  0  0  0
 10 38  1  0  0  0
 11 30  1  0  0  0
 11 39  1  0  0  0
 12 32  1  0  0  0
 12 40  1  0  0  0
 13 14  1  0  0  0
 13 22  1  0  0  0
 14 15  1  0  0  0
 15 16  1  0  0  0
 16 21  1  0  0  0
 17 18  1  0  0  0
 19 17  1  0  0  0
 20 19  1  0  0  0
 23 20  1  0  0  0
 23 24  1  0  0  0
 25 26  1  0  0  0
 26 27  1  0  0  0
 27 28  2  0  0  0
 27 29  1  0  0  0
 28 30  1  0  0  0
 29 31  2  0  0  0
 30 32  2  0  0  0
 31 32  1  0  0  0
M  END
>  <CHROM.0>
-64.83023236,-62.83361352,24.01299821

>  <CHROM.1>
-76.52151860,-173.07939906,177.36323182,39.03646246,151.89407812,-56.29949890
-62.85762358,61.72292708,178.04662110,-174.80451914,147.72906692,-175.71414499
-51.08655889,-69.92025291,-114.35701723,-48.44652050,-1.95960957,16.82436072
-0.08220192,-0.55846866,-1.35282644

>  <Name>
Forsythoside_E.pdb

>  <RI>
-1.14536e+09

>  <Rbt.Current_Directory>
/root/miniconda3/envs/rdock/share/rxdock-2013.1.1_148c5bd1-0/data/ligands/prepped_ligands/Forsythoside_E

>  <Rbt.Executable>
rbdock/0.1.0

>  <Rbt.Library>
librxdock.so/0.1.0

>  <Rbt.Parameter_File>
/root/miniconda3/envs/rdock/share/rxdock-2013.1.1_148c5bd1-0/data/scripts/dock.prm

>  <Rbt.Receptor>
def.prm

>  <SCORE>
-15.4789

>  <SCORE.INTER>
-20.0688

>  <SCORE.INTER.CONST>
1

>  <SCORE.INTER.POLAR>
-3.4007

>  <SCORE.INTER.REPUL>
0.00230316

>  <SCORE.INTER.ROT>
7

>  <SCORE.INTER.VDW>
-20.918

>  <SCORE.INTER.norm>
-0.627151

>  <SCORE.INTRA>
4.16008

>  <SCORE.INTRA.DIHEDRAL>
5.89622

>  <SCORE.INTRA.DIHEDRAL.0>
3.93665

>  <SCORE.INTRA.POLAR>
-0.00978272

>  <SCORE.INTRA.POLAR.0>
0

>  <SCORE.INTRA.REPUL>
0

>  <SCORE.INTRA.REPUL.0>
0

>  <SCORE.INTRA.VDW>
1.24523

>  <SCORE.INTRA.VDW.0>
-1.0842

>  <SCORE.INTRA.norm>
0.130003

>  <SCORE.RESTR>
0

>  <SCORE.RESTR.CAVITY>
0

>  <SCORE.RESTR.norm>
0

>  <SCORE.SYSTEM>
0.429881

>  <SCORE.SYSTEM.CONST>
0

>  <SCORE.SYSTEM.DIHEDRAL>
2.47028

>  <SCORE.SYSTEM.VDW>
-0.805258

>  <SCORE.SYSTEM.norm>
0.0134338

>  <SCORE.heavy>
32

>  <SCORE.norm>
-0.483715

$$$$
Forsythoside_E.pdb
  RxDock  02242101213D
librxdock.so/0.1.0
 40 42  0  0  0  0  0  0  0  0999 V2000
  -49.9463   -2.1012   17.0316 O   0  0  0  0  0  0
  -48.4226    0.1382   17.7259 O   0  0  0  0  0  0
  -46.3269    0.1642   16.6132 O   0  0  0  0  0  0
  -51.8102    0.9842   17.6770 O   0  0  0  0  0  0
  -50.4507   -4.3544   17.3719 O   0  0  0  0  0  0
  -52.9954   -0.9100   19.5117 O   0  0  0  0  0  0
  -53.0043   -3.6134   18.3393 O   0  0  0  0  0  0
  -45.4412    2.0042   18.6352 O   0  0  0  0  0  0
  -45.1909    0.0490   20.6002 O   0  0  0  0  0  0
  -44.7740   -2.2350   18.9412 O   0  0  0  0  0  0
  -49.4610   -7.4979   21.2445 O   0  0  0  0  0  0
  -51.6530   -9.0792   20.5967 O   0  0  0  0  0  0
  -50.4292   -0.7794   16.7846 C   0  0  0  0  0  0
  -51.2673   -0.3000   17.9719 C   0  0  0  0  0  0
  -52.4069   -1.2769   18.2626 C   0  0  0  0  0  0
  -51.8951   -2.7147   18.3433 C   0  0  0  0  0  0
  -46.5128    1.0861   18.8582 C   0  0  0  0  0  0
  -47.2039    0.8437   17.5176 C   0  0  0  0  0  0
  -45.9681   -0.2216   19.4357 C   0  0  0  0  0  0
  -45.1009   -0.9538   18.4113 C   0  0  0  0  0  0
  -50.9999   -3.0546   17.1527 C   0  0  0  0  0  0
  -49.2177    0.1167   16.5489 C   0  0  0  0  0  0
  -45.8638   -1.1048   17.0876 C   0  0  0  0  0  0
  -44.9876   -1.6987   15.9870 C   0  0  0  0  0  0
  -49.7349   -4.8105   16.2349 C   0  0  0  0  0  0
  -49.0046   -6.1054   16.5724 C   0  0  0  0  0  0
  -49.7071   -6.8976   17.6476 C   0  0  0  0  0  0
  -49.2574   -6.8363   18.9660 C   0  0  0  0  0  0
  -50.8086   -7.6904   17.3219 C   0  0  0  0  0  0
  -49.9085   -7.5674   19.9598 C   0  0  0  0  0  0
  -51.4584   -8.4217   18.3160 C   0  0  0  0  0  0
  -51.0087   -8.3604   19.6343 C   0  0  0  0  0  0
  -52.2779    1.3016   18.4683 H   0  0  0  0  0  0
  -53.3532   -0.0097   19.4252 H   0  0  0  0  0  0
  -53.6438   -3.3003   17.6765 H   0  0  0  0  0  0
  -45.8154    2.7963   18.2140 H   0  0  0  0  0  0
  -45.7969    0.3738   21.2883 H   0  0  0  0  0  0
  -44.2230   -2.1030   19.7319 H   0  0  0  0  0  0
  -50.1701   -7.1429   21.8080 H   0  0  0  0  0  0
  -51.2606   -8.8722   21.4622 H   0  0  0  0  0  0
  1 13  1  0  0  0
  1 21  1  0  0  0
  2 18  1  0  0  0
  2 22  1  0  0  0
  3 18  1  0  0  0
  3 23  1  0  0  0
  4 14  1  0  0  0
  4 33  1  0  0  0
  5 21  1  0  0  0
  5 25  1  0  0  0
  6 15  1  0  0  0
  6 34  1  0  0  0
  7 16  1  0  0  0
  7 35  1  0  0  0
  8 17  1  0  0  0
  8 36  1  0  0  0
  9 19  1  0  0  0
  9 37  1  0  0  0
 10 20  1  0  0  0
 10 38  1  0  0  0
 11 30  1  0  0  0
 11 39  1  0  0  0
 12 32  1  0  0  0
 12 40  1  0  0  0
 13 14  1  0  0  0
 13 22  1  0  0  0
 14 15  1  0  0  0
 15 16  1  0  0  0
 16 21  1  0  0  0
 17 18  1  0  0  0
 19 17  1  0  0  0
 20 19  1  0  0  0
 23 20  1  0  0  0
 23 24  1  0  0  0
 25 26  1  0  0  0
 26 27  1  0  0  0
 27 28  2  0  0  0
 27 29  1  0  0  0
 28 30  1  0  0  0
 29 31  2  0  0  0
 30 32  2  0  0  0
 31 32  1  0  0  0
M  END
>  <CHROM.0>
-67.23242489,61.84814582,-179.99150249

>  <CHROM.1>
-67.64546167,173.73212324,-175.49724339,-66.57546984,172.15088157,61.55476673
42.43136089,55.27341349,67.52621301,-64.76830626,119.19918375,4.32148482
-62.46943097,28.43370205,-99.77962906,-49.11485073,-2.81235960,18.20741069
1.05384824,-0.08355878,-0.16572021

>  <Name>
Forsythoside_E.pdb

>  <RI>
-1.14536e+09

>  <Rbt.Current_Directory>
/root/miniconda3/envs/rdock/share/rxdock-2013.1.1_148c5bd1-0/data/ligands/prepped_ligands/Forsythoside_E

>  <Rbt.Executable>
rbdock/0.1.0

>  <Rbt.Library>
librxdock.so/0.1.0

>  <Rbt.Parameter_File>
/root/miniconda3/envs/rdock/share/rxdock-2013.1.1_148c5bd1-0/data/scripts/dock.prm

>  <Rbt.Receptor>
def.prm

>  <SCORE>
-8.86652

>  <SCORE.INTER>
-11.3202

>  <SCORE.INTER.CONST>
1

>  <SCORE.INTER.POLAR>
-1.67496

>  <SCORE.INTER.REPUL>
0.00473445

>  <SCORE.INTER.ROT>
7

>  <SCORE.INTER.VDW>
-18.049

>  <SCORE.INTER.norm>
-0.353757

>  <SCORE.INTRA>
3.23291

>  <SCORE.INTRA.DIHEDRAL>
6.56535

>  <SCORE.INTRA.DIHEDRAL.0>
3.93665

>  <SCORE.INTRA.POLAR>
0

>  <SCORE.INTRA.POLAR.0>
0

>  <SCORE.INTRA.REPUL>
0

>  <SCORE.INTRA.REPUL.0>
0

>  <SCORE.INTRA.VDW>
-0.0497666

>  <SCORE.INTRA.VDW.0>
-1.0842

>  <SCORE.INTRA.norm>
0.101028

>  <SCORE.RESTR>
0.173745

>  <SCORE.RESTR.CAVITY>
0.173745

>  <SCORE.RESTR.norm>
0.00542954

>  <SCORE.SYSTEM>
-0.952965

>  <SCORE.SYSTEM.CONST>
0

>  <SCORE.SYSTEM.DIHEDRAL>
0.149779

>  <SCORE.SYSTEM.POLAR>
-0.0020105

>  <SCORE.SYSTEM.VDW>
-1.02102

>  <SCORE.SYSTEM.norm>
-0.0297802

>  <SCORE.heavy>
32

>  <SCORE.norm>
-0.277079

$$$$
