Forsythoside_E.pdb
  RxDock  02242112583D
librxdock.so/0.1.0
 40 42  0  0  0  0  0  0  0  0999 V2000
  -48.6793   -2.4134   16.7648 O   0  0  0  0  0  0
  -50.4414   -4.4433   17.6959 O   0  0  0  0  0  0
  -52.3491   -5.2260   18.8701 O   0  0  0  0  0  0
  -52.1228   -2.4195   15.5187 O   0  0  0  0  0  0
  -46.6477   -1.7956   15.7962 O   0  0  0  0  0  0
  -50.5368   -2.5338   13.1040 O   0  0  0  0  0  0
  -48.0265   -1.0293   13.4473 O   0  0  0  0  0  0
  -52.7643   -7.0476   16.6865 O   0  0  0  0  0  0
  -50.7002   -8.7541   17.4440 O   0  0  0  0  0  0
  -50.6127   -8.1762   20.2370 O   0  0  0  0  0  0
  -44.3250    0.4773   20.1868 O   0  0  0  0  0  0
  -42.9665   -1.8556   20.8478 O   0  0  0  0  0  0
  -50.0966   -2.2395   16.8133 C   0  0  0  0  0  0
  -50.7213   -2.6760   15.4863 C   0  0  0  0  0  0
  -50.0949   -1.9184   14.3153 C   0  0  0  0  0  0
  -48.5687   -1.9626   14.3817 C   0  0  0  0  0  0
  -51.4778   -6.5071   16.9927 C   0  0  0  0  0  0
  -51.6886   -5.1232   17.6043 C   0  0  0  0  0  0
  -50.7432   -7.4287   17.9681 C   0  0  0  0  0  0
  -51.4364   -7.4488   19.3306 C   0  0  0  0  0  0
  -48.0613   -1.5938   15.7750 C   0  0  0  0  0  0
  -50.6218   -3.0640   17.9840 C   0  0  0  0  0  0
  -51.6457   -6.0145   19.8362 C   0  0  0  0  0  0
  -52.4653   -5.9758   21.1240 C   0  0  0  0  0  0
  -45.9561   -0.6525   15.3185 C   0  0  0  0  0  0
  -44.4538   -0.8568   15.4773 C   0  0  0  0  0  0
  -44.0580   -1.1189   16.9097 C   0  0  0  0  0  0
  -44.3737   -0.1915   17.9018 C   0  0  0  0  0  0
  -43.3770   -2.2912   17.2411 C   0  0  0  0  0  0
  -44.0092   -0.4354   19.2261 C   0  0  0  0  0  0
  -43.0121   -2.5338   18.5653 C   0  0  0  0  0  0
  -43.3279   -1.6064   19.5574 C   0  0  0  0  0  0
  -52.5131   -2.7798   14.7041 H   0  0  0  0  0  0
  -50.1882   -2.0172   12.3571 H   0  0  0  0  0  0
  -47.1185   -1.3072   13.2358 H   0  0  0  0  0  0
  -52.6304   -7.8126   16.1019 H   0  0  0  0  0  0
  -50.1312   -8.7393   16.6552 H   0  0  0  0  0  0
  -50.5806   -9.1017   19.9395 H   0  0  0  0  0  0
  -43.7940    0.2968   20.9817 H   0  0  0  0  0  0
  -43.6699   -1.5393   21.4402 H   0  0  0  0  0  0
  1 13  1  0  0  0
  1 21  1  0  0  0
  2 18  1  0  0  0
  2 22  1  0  0  0
  3 18  1  0  0  0
  3 23  1  0  0  0
  4 14  1  0  0  0
  4 33  1  0  0  0
  5 21  1  0  0  0
  5 25  1  0  0  0
  6 15  1  0  0  0
  6 34  1  0  0  0
  7 16  1  0  0  0
  7 35  1  0  0  0
  8 17  1  0  0  0
  8 36  1  0  0  0
  9 19  1  0  0  0
  9 37  1  0  0  0
 10 20  1  0  0  0
 10 38  1  0  0  0
 11 30  1  0  0  0
 11 39  1  0  0  0
 12 32  1  0  0  0
 12 40  1  0  0  0
 13 14  1  0  0  0
 13 22  1  0  0  0
 14 15  1  0  0  0
 15 16  1  0  0  0
 16 21  1  0  0  0
 17 18  1  0  0  0
 19 17  1  0  0  0
 20 19  1  0  0  0
 23 20  1  0  0  0
 23 24  1  0  0  0
 25 26  1  0  0  0
 26 27  1  0  0  0
 27 28  2  0  0  0
 27 29  1  0  0  0
 28 30  1  0  0  0
 29 31  2  0  0  0
 30 32  2  0  0  0
 31 32  1  0  0  0
M  END
>  <CHROM.0>
-178.85389021,-58.54356497,179.31314510

>  <CHROM.1>
-69.04032252,-116.41956966,-174.70551020,-153.57608554,174.78818442,176.24094275
-157.40363078,165.92028935,67.17242190,-65.70318006,-163.81471427,37.40547403
-67.19813250,-58.09745981,-57.62187255,-48.55056706,-3.40069197,17.31138449
0.37618857,-0.51645414,-0.95067109

>  <Name>
Forsythoside_E.pdb

>  <RI>
-7.77178e+08

>  <Rbt.Current_Directory>
/root/miniconda3/envs/rdock/share/rxdock-2013.1.1_148c5bd1-0/data/ligands/prepped_ligands/Forsythoside_E

>  <Rbt.Executable>
rbdock/0.1.0

>  <Rbt.Library>
librxdock.so/0.1.0

>  <Rbt.Parameter_File>
/root/miniconda3/envs/rdock/share/rxdock-2013.1.1_148c5bd1-0/data/scripts/dock.prm

>  <Rbt.Receptor>
def.prm

>  <SCORE>
-12.0494

>  <SCORE.INTER>
-18.0617

>  <SCORE.INTER.CONST>
1

>  <SCORE.INTER.POLAR>
-2.61133

>  <SCORE.INTER.REPUL>
0.0171162

>  <SCORE.INTER.ROT>
7

>  <SCORE.INTER.VDW>
-21.6688

>  <SCORE.INTER.norm>
-0.564428

>  <SCORE.INTRA>
7.06517

>  <SCORE.INTRA.DIHEDRAL>
13.5861

>  <SCORE.INTRA.DIHEDRAL.0>
3.93665

>  <SCORE.INTRA.POLAR>
0

>  <SCORE.INTRA.POLAR.0>
0

>  <SCORE.INTRA.REPUL>
0

>  <SCORE.INTRA.REPUL.0>
0

>  <SCORE.INTRA.VDW>
0.272097

>  <SCORE.INTRA.VDW.0>
-1.0842

>  <SCORE.INTRA.norm>
0.220787

>  <SCORE.RESTR>
0

>  <SCORE.RESTR.CAVITY>
0

>  <SCORE.RESTR.norm>
0

>  <SCORE.SYSTEM>
-1.05287

>  <SCORE.SYSTEM.CONST>
0

>  <SCORE.SYSTEM.DIHEDRAL>
0.0147809

>  <SCORE.SYSTEM.POLAR>
-0.000229308

>  <SCORE.SYSTEM.VDW>
-1.05948

>  <SCORE.SYSTEM.norm>
-0.0329022

>  <SCORE.heavy>
32

>  <SCORE.norm>
-0.376544

$$$$
Forsythoside_E.pdb
  RxDock  02242112583D
librxdock.so/0.1.0
 40 42  0  0  0  0  0  0  0  0999 V2000
  -48.4906   -2.6065   17.5151 O   0  0  0  0  0  0
  -49.8715   -4.9832   16.6725 O   0  0  0  0  0  0
  -51.0817   -5.2243   18.6993 O   0  0  0  0  0  0
  -48.8653   -3.2959   13.9381 O   0  0  0  0  0  0
  -46.8101   -1.5686   18.7583 O   0  0  0  0  0  0
  -46.0051   -3.0400   14.2745 O   0  0  0  0  0  0
  -45.3863   -1.0596   16.3668 O   0  0  0  0  0  0
  -51.3560   -8.0066   18.0338 O   0  0  0  0  0  0
  -48.7244   -8.6365   18.6852 O   0  0  0  0  0  0
  -48.1928   -6.5545   20.5627 O   0  0  0  0  0  0
  -41.8321    0.4242   20.8451 O   0  0  0  0  0  0
  -42.0137    2.2856   18.7891 O   0  0  0  0  0  0
  -49.1661   -2.7275   16.2620 C   0  0  0  0  0  0
  -48.2021   -3.2592   15.1990 C   0  0  0  0  0  0
  -46.9638   -2.3688   15.0940 C   0  0  0  0  0  0
  -46.3578   -2.1005   16.4712 C   0  0  0  0  0  0
  -50.2907   -7.2033   17.5233 C   0  0  0  0  0  0
  -50.8049   -5.7696   17.4051 C   0  0  0  0  0  0
  -49.0860   -7.2751   18.4635 C   0  0  0  0  0  0
  -49.3981   -6.6127   19.8055 C   0  0  0  0  0  0
  -47.4245   -1.6603   17.4726 C   0  0  0  0  0  0
  -50.3533   -3.6627   16.4674 C   0  0  0  0  0  0
  -49.9522   -5.1991   19.5788 C   0  0  0  0  0  0
  -50.4167   -4.5511   20.8812 C   0  0  0  0  0  0
  -47.5738   -0.7592   19.6386 C   0  0  0  0  0  0
  -46.6831   -0.2370   20.7602 C   0  0  0  0  0  0
  -45.4364    0.4342   20.2383 C   0  0  0  0  0  0
  -44.1934    0.1207   20.7868 C   0  0  0  0  0  0
  -45.5281    1.3677   19.2049 C   0  0  0  0  0  0
  -43.0410    0.7401   20.3025 C   0  0  0  0  0  0
  -44.3755    1.9872   18.7220 C   0  0  0  0  0  0
  -43.1325    1.6738   19.2705 C   0  0  0  0  0  0
  -48.2858   -3.7562   13.3072 H   0  0  0  0  0  0
  -46.2297   -2.8691   13.3437 H   0  0  0  0  0  0
  -45.8382   -0.2551   16.0584 H   0  0  0  0  0  0
  -51.6159   -7.6379   18.8948 H   0  0  0  0  0  0
  -49.4877   -9.0799   19.0939 H   0  0  0  0  0  0
  -48.4078   -6.2089   21.4462 H   0  0  0  0  0  0
  -41.9729    0.0246   21.7208 H   0  0  0  0  0  0
  -41.2353    1.9321   19.2529 H   0  0  0  0  0  0
  1 13  1  0  0  0
  1 21  1  0  0  0
  2 18  1  0  0  0
  2 22  1  0  0  0
  3 18  1  0  0  0
  3 23  1  0  0  0
  4 14  1  0  0  0
  4 33  1  0  0  0
  5 21  1  0  0  0
  5 25  1  0  0  0
  6 15  1  0  0  0
  6 34  1  0  0  0
  7 16  1  0  0  0
  7 35  1  0  0  0
  8 17  1  0  0  0
  8 36  1  0  0  0
  9 19  1  0  0  0
  9 37  1  0  0  0
 10 20  1  0  0  0
 10 38  1  0  0  0
 11 30  1  0  0  0
 11 39  1  0  0  0
 12 32  1  0  0  0
 12 40  1  0  0  0
 13 14  1  0  0  0
 13 22  1  0  0  0
 14 15  1  0  0  0
 15 16  1  0  0  0
 16 21  1  0  0  0
 17 18  1  0  0  0
 19 17  1  0  0  0
 20 19  1  0  0  0
 23 20  1  0  0  0
 23 24  1  0  0  0
 25 26  1  0  0  0
 26 27  1  0  0  0
 27 28  2  0  0  0
 27 29  1  0  0  0
 28 30  1  0  0  0
 29 31  2  0  0  0
 30 32  2  0  0  0
 31 32  1  0  0  0
M  END
>  <CHROM.0>
-59.14785586,-61.41047424,59.33760009

>  <CHROM.1>
-60.11476826,155.27864346,-171.74617990,-79.14803276,-158.01633806,82.67638531
61.52596046,-58.85646202,-60.55171093,-174.84956858,-19.83529405,2.08425214
-70.12146164,52.16415755,-132.68488943,-47.43293433,-2.88408812,18.17405987
3.09575467,0.86899805,1.80679878

>  <Name>
Forsythoside_E.pdb

>  <RI>
-7.77178e+08

>  <Rbt.Current_Directory>
/root/miniconda3/envs/rdock/share/rxdock-2013.1.1_148c5bd1-0/data/ligands/prepped_ligands/Forsythoside_E

>  <Rbt.Executable>
rbdock/0.1.0

>  <Rbt.Library>
librxdock.so/0.1.0

>  <Rbt.Parameter_File>
/root/miniconda3/envs/rdock/share/rxdock-2013.1.1_148c5bd1-0/data/scripts/dock.prm

>  <Rbt.Receptor>
def.prm

>  <SCORE>
-8.58365

>  <SCORE.INTER>
-10.2992

>  <SCORE.INTER.CONST>
1

>  <SCORE.INTER.POLAR>
-1.94706

>  <SCORE.INTER.REPUL>
0.108602

>  <SCORE.INTER.ROT>
7

>  <SCORE.INTER.VDW>
-16.6222

>  <SCORE.INTER.norm>
-0.32185

>  <SCORE.INTRA>
2.77904

>  <SCORE.INTRA.DIHEDRAL>
7.15722

>  <SCORE.INTRA.DIHEDRAL.0>
3.93665

>  <SCORE.INTRA.POLAR>
-0.13947

>  <SCORE.INTRA.POLAR.0>
0

>  <SCORE.INTRA.REPUL>
0

>  <SCORE.INTRA.REPUL.0>
0

>  <SCORE.INTRA.VDW>
-0.32537

>  <SCORE.INTRA.VDW.0>
-1.0842

>  <SCORE.INTRA.norm>
0.086845

>  <SCORE.RESTR>
0

>  <SCORE.RESTR.CAVITY>
0

>  <SCORE.RESTR.norm>
0

>  <SCORE.SYSTEM>
-1.06348

>  <SCORE.SYSTEM.CONST>
0

>  <SCORE.SYSTEM.DIHEDRAL>
0.0127983

>  <SCORE.SYSTEM.VDW>
-1.06988

>  <SCORE.SYSTEM.norm>
-0.0332338

>  <SCORE.heavy>
32

>  <SCORE.norm>
-0.268239

$$$$
Forsythoside_E.pdb
  RxDock  02242112583D
librxdock.so/0.1.0
 40 42  0  0  0  0  0  0  0  0999 V2000
  -47.4609   -1.8734   16.2570 O   0  0  0  0  0  0
  -48.8184   -2.2765   18.6881 O   0  0  0  0  0  0
  -49.2513   -3.3775   20.7450 O   0  0  0  0  0  0
  -51.1033   -1.4987   16.2025 O   0  0  0  0  0  0
  -45.9249   -2.6312   14.6716 O   0  0  0  0  0  0
  -50.6062   -3.5033   14.1792 O   0  0  0  0  0  0
  -48.0398   -2.9881   12.8262 O   0  0  0  0  0  0
  -51.3926   -1.4999   21.1310 O   0  0  0  0  0  0
  -53.0789   -2.7259   19.2872 O   0  0  0  0  0  0
  -52.0308   -5.3782   19.3815 O   0  0  0  0  0  0
  -44.1496    2.3291   18.5623 O   0  0  0  0  0  0
  -41.7718    1.5101   19.7456 O   0  0  0  0  0  0
  -48.7247   -1.2599   16.5173 C   0  0  0  0  0  0
  -49.8550   -2.1593   16.0120 C   0  0  0  0  0  0
  -49.6729   -2.4794   14.5281 C   0  0  0  0  0  0
  -48.2529   -2.9641   14.2376 C   0  0  0  0  0  0
  -50.8968   -1.8328   19.8332 C   0  0  0  0  0  0
  -49.4163   -2.1813   19.9763 C   0  0  0  0  0  0
  -51.6827   -3.0143   19.2615 C   0  0  0  0  0  0
  -51.4175   -4.2884   20.0637 C   0  0  0  0  0  0
  -47.2101   -2.0389   14.8630 C   0  0  0  0  0  0
  -48.8202   -1.0224   18.0209 C   0  0  0  0  0  0
  -49.9060   -4.5246   20.1923 C   0  0  0  0  0  0
  -49.5873   -5.7036   21.1090 C   0  0  0  0  0  0
  -44.9079   -1.8744   15.3088 C   0  0  0  0  0  0
  -44.9003   -2.1783   16.8027 C   0  0  0  0  0  0
  -44.0685   -1.1920   17.5852 C   0  0  0  0  0  0
  -44.4924    0.1300   17.7153 C   0  0  0  0  0  0
  -42.8752   -1.6042   18.1804 C   0  0  0  0  0  0
  -43.7240    1.0408   18.4406 C   0  0  0  0  0  0
  -42.1071   -0.6927   18.9045 C   0  0  0  0  0  0
  -42.5311    0.6293   19.0346 C   0  0  0  0  0  0
  -51.8108   -2.1106   15.9363 H   0  0  0  0  0  0
  -50.4403   -3.7628   13.2565 H   0  0  0  0  0  0
  -48.3071   -2.1248   12.4660 H   0  0  0  0  0  0
  -50.8768   -0.7436   21.4578 H   0  0  0  0  0  0
  -53.5362   -3.4480   18.8228 H   0  0  0  0  0  0
  -51.6567   -5.4219   18.4846 H   0  0  0  0  0  0
  -44.5036    2.6277   17.7069 H   0  0  0  0  0  0
  -41.5911    1.1346   20.6244 H   0  0  0  0  0  0
  1 13  1  0  0  0
  1 21  1  0  0  0
  2 18  1  0  0  0
  2 22  1  0  0  0
  3 18  1  0  0  0
  3 23  1  0  0  0
  4 14  1  0  0  0
  4 33  1  0  0  0
  5 21  1  0  0  0
  5 25  1  0  0  0
  6 15  1  0  0  0
  6 34  1  0  0  0
  7 16  1  0  0  0
  7 35  1  0  0  0
  8 17  1  0  0  0
  8 36  1  0  0  0
  9 19  1  0  0  0
  9 37  1  0  0  0
 10 20  1  0  0  0
 10 38  1  0  0  0
 11 30  1  0  0  0
 11 39  1  0  0  0
 12 32  1  0  0  0
 12 40  1  0  0  0
 13 14  1  0  0  0
 13 22  1  0  0  0
 14 15  1  0  0  0
 15 16  1  0  0  0
 16 21  1  0  0  0
 17 18  1  0  0  0
 19 17  1  0  0  0
 20 19  1  0  0  0
 23 20  1  0  0  0
 23 24  1  0  0  0
 25 26  1  0  0  0
 26 27  1  0  0  0
 27 28  2  0  0  0
 27 29  1  0  0  0
 28 30  1  0  0  0
 29 31  2  0  0  0
 30 32  2  0  0  0
 31 32  1  0  0  0
M  END
>  <CHROM.0>
-67.51541243,-65.94074776,-176.44892894

>  <CHROM.1>
-171.38121089,-156.96230221,-175.92841360,-55.43302209,79.03574558,-175.16852452
50.59134495,59.53433088,173.39750984,58.17133576,-41.43008440,127.19285122
-64.15775321,-167.01145167,68.79251975,-47.88706739,-1.99834236,17.74573915
0.06117782,-0.42488133,-1.66411107

>  <Name>
Forsythoside_E.pdb

>  <RI>
-7.77178e+08

>  <Rbt.Current_Directory>
/root/miniconda3/envs/rdock/share/rxdock-2013.1.1_148c5bd1-0/data/ligands/prepped_ligands/Forsythoside_E

>  <Rbt.Executable>
rbdock/0.1.0

>  <Rbt.Library>
librxdock.so/0.1.0

>  <Rbt.Parameter_File>
/root/miniconda3/envs/rdock/share/rxdock-2013.1.1_148c5bd1-0/data/scripts/dock.prm

>  <Rbt.Receptor>
def.prm

>  <SCORE>
-1.20706

>  <SCORE.INTER>
-6.6224

>  <SCORE.INTER.CONST>
1

>  <SCORE.INTER.POLAR>
-1.0147

>  <SCORE.INTER.REPUL>
0.505645

>  <SCORE.INTER.ROT>
7

>  <SCORE.INTER.VDW>
-18.1007

>  <SCORE.INTER.norm>
-0.20695

>  <SCORE.INTRA>
6.26548

>  <SCORE.INTRA.DIHEDRAL>
7.95711

>  <SCORE.INTRA.DIHEDRAL.0>
3.93665

>  <SCORE.INTRA.POLAR>
0

>  <SCORE.INTRA.POLAR.0>
0

>  <SCORE.INTRA.REPUL>
0

>  <SCORE.INTRA.REPUL.0>
0

>  <SCORE.INTRA.VDW>
2.28693

>  <SCORE.INTRA.VDW.0>
-1.0842

>  <SCORE.INTRA.norm>
0.195796

>  <SCORE.RESTR>
0.0982744

>  <SCORE.RESTR.CAVITY>
0.0982744

>  <SCORE.RESTR.norm>
0.00307107

>  <SCORE.SYSTEM>
-0.948413

>  <SCORE.SYSTEM.CONST>
0

>  <SCORE.SYSTEM.DIHEDRAL>
0.344085

>  <SCORE.SYSTEM.POLAR>
-0.00971626

>  <SCORE.SYSTEM.VDW>
-1.08742

>  <SCORE.SYSTEM.norm>
-0.0296379

>  <SCORE.heavy>
32

>  <SCORE.norm>
-0.0377206

$$$$
Forsythoside_E.pdb
  RxDock  02242112583D
librxdock.so/0.1.0
 40 42  0  0  0  0  0  0  0  0999 V2000
  -48.5809   -2.3776   16.2561 O   0  0  0  0  0  0
  -46.6457   -1.9924   17.9890 O   0  0  0  0  0  0
  -45.1612   -0.8054   19.4096 O   0  0  0  0  0  0
  -45.5178   -1.5722   14.4178 O   0  0  0  0  0  0
  -50.8413   -2.0217   15.7965 O   0  0  0  0  0  0
  -47.4377    0.3264   13.3841 O   0  0  0  0  0  0
  -50.1313   -0.8662   13.3133 O   0  0  0  0  0  0
  -45.1878    1.2900   17.4431 O   0  0  0  0  0  0
  -47.7274    2.1935   18.1363 O   0  0  0  0  0  0
  -47.8193    1.3057   20.8466 O   0  0  0  0  0  0
  -52.2440   -4.1476   21.6069 O   0  0  0  0  0  0
  -52.6471   -6.3622   19.9765 O   0  0  0  0  0  0
  -47.2616   -2.5774   15.7456 C   0  0  0  0  0  0
  -46.7995   -1.3286   14.9914 C   0  0  0  0  0  0
  -47.7889   -0.9651   13.8840 C   0  0  0  0  0  0
  -49.2227   -0.9342   14.4123 C   0  0  0  0  0  0
  -46.2592    0.3539   17.5725 C   0  0  0  0  0  0
  -45.6694   -0.9605   18.0805 C   0  0  0  0  0  0
  -47.3089    0.8934   18.5459 C   0  0  0  0  0  0
  -46.7504    0.9693   19.9671 C   0  0  0  0  0  0
  -49.5447   -2.1893   15.2220 C   0  0  0  0  0  0
  -46.3526   -2.8919   16.9293 C   0  0  0  0  0  0
  -46.1392   -0.3814   20.3656 C   0  0  0  0  0  0
  -45.4375   -0.3144   21.7202 C   0  0  0  0  0  0
  -50.8172   -1.0823   16.8595 C   0  0  0  0  0  0
  -52.0886   -1.2130   17.6903 C   0  0  0  0  0  0
  -52.2358   -2.5840   18.3033 C   0  0  0  0  0  0
  -52.1700   -2.7404   19.6873 C   0  0  0  0  0  0
  -52.4396   -3.6955   17.4841 C   0  0  0  0  0  0
  -52.3082   -4.0079   20.2534 C   0  0  0  0  0  0
  -52.5767   -4.9624   18.0509 C   0  0  0  0  0  0
  -52.5109   -5.1188   19.4349 C   0  0  0  0  0  0
  -45.6243   -2.2365   13.7156 H   0  0  0  0  0  0
  -46.5747    0.2553   12.9411 H   0  0  0  0  0  0
  -49.8925   -1.5656   12.6807 H   0  0  0  0  0  0
  -44.7637    1.3738   18.3137 H   0  0  0  0  0  0
  -46.9269    2.7244   17.9826 H   0  0  0  0  0  0
  -48.1531    2.1838   20.5940 H   0  0  0  0  0  0
  -51.5629   -3.5469   21.9553 H   0  0  0  0  0  0
  -52.2747   -6.3585   20.8749 H   0  0  0  0  0  0
  1 13  1  0  0  0
  1 21  1  0  0  0
  2 18  1  0  0  0
  2 22  1  0  0  0
  3 18  1  0  0  0
  3 23  1  0  0  0
  4 14  1  0  0  0
  4 33  1  0  0  0
  5 21  1  0  0  0
  5 25  1  0  0  0
  6 15  1  0  0  0
  6 34  1  0  0  0
  7 16  1  0  0  0
  7 35  1  0  0  0
  8 17  1  0  0  0
  8 36  1  0  0  0
  9 19  1  0  0  0
  9 37  1  0  0  0
 10 20  1  0  0  0
 10 38  1  0  0  0
 11 30  1  0  0  0
 11 39  1  0  0  0
 12 32  1  0  0  0
 12 40  1  0  0  0
 13 14  1  0  0  0
 13 22  1  0  0  0
 14 15  1  0  0  0
 15 16  1  0  0  0
 16 21  1  0  0  0
 17 18  1  0  0  0
 19 17  1  0  0  0
 20 19  1  0  0  0
 23 20  1  0  0  0
 23 24  1  0  0  0
 25 26  1  0  0  0
 26 27  1  0  0  0
 27 28  2  0  0  0
 27 29  1  0  0  0
 28 30  1  0  0  0
 29 31  2  0  0  0
 30 32  2  0  0  0
 31 32  1  0  0  0
M  END
>  <CHROM.0>
-64.67027779,60.34234509,63.08512586

>  <CHROM.1>
-129.61310328,-102.47840491,67.96644287,47.71517929,-164.19782301,66.66637127
50.32213173,-57.77183249,-50.09114627,-62.39112619,-38.40466234,-19.86973084
-44.42048857,60.60168001,113.61589206,-48.72244499,-1.52863236,17.59927507
0.27698172,-0.59536094,-1.54878862

>  <Name>
Forsythoside_E.pdb

>  <RI>
-7.77178e+08

>  <Rbt.Current_Directory>
/root/miniconda3/envs/rdock/share/rxdock-2013.1.1_148c5bd1-0/data/ligands/prepped_ligands/Forsythoside_E

>  <Rbt.Executable>
rbdock/0.1.0

>  <Rbt.Library>
librxdock.so/0.1.0

>  <Rbt.Parameter_File>
/root/miniconda3/envs/rdock/share/rxdock-2013.1.1_148c5bd1-0/data/scripts/dock.prm

>  <Rbt.Receptor>
def.prm

>  <SCORE>
-6.89188

>  <SCORE.INTER>
-14.662

>  <SCORE.INTER.CONST>
1

>  <SCORE.INTER.POLAR>
-2.81205

>  <SCORE.INTER.REPUL>
0.000706044

>  <SCORE.INTER.ROT>
7

>  <SCORE.INTER.VDW>
-17.5046

>  <SCORE.INTER.norm>
-0.458187

>  <SCORE.INTRA>
8.68692

>  <SCORE.INTRA.DIHEDRAL>
15.9411

>  <SCORE.INTRA.DIHEDRAL.0>
3.93665

>  <SCORE.INTRA.POLAR>
-0.0541249

>  <SCORE.INTRA.POLAR.0>
0

>  <SCORE.INTRA.REPUL>
0

>  <SCORE.INTRA.REPUL.0>
0

>  <SCORE.INTRA.VDW>
0.900389

>  <SCORE.INTRA.VDW.0>
-1.0842

>  <SCORE.INTRA.norm>
0.271466

>  <SCORE.RESTR>
0

>  <SCORE.RESTR.CAVITY>
0

>  <SCORE.RESTR.norm>
0

>  <SCORE.SYSTEM>
-0.916803

>  <SCORE.SYSTEM.CONST>
0

>  <SCORE.SYSTEM.DIHEDRAL>
0.0786715

>  <SCORE.SYSTEM.POLAR>
-0.00770395

>  <SCORE.SYSTEM.VDW>
-0.929946

>  <SCORE.SYSTEM.norm>
-0.0286501

>  <SCORE.heavy>
32

>  <SCORE.norm>
-0.215371

$$$$
Forsythoside_E.pdb
  RxDock  02242112583D
librxdock.so/0.1.0
 40 42  0  0  0  0  0  0  0  0999 V2000
  -48.6776   -2.6418   16.1205 O   0  0  0  0  0  0
  -45.3669   -2.1159   16.8952 O   0  0  0  0  0  0
  -45.7120   -1.7512   19.2143 O   0  0  0  0  0  0
  -45.5954   -1.6024   14.4383 O   0  0  0  0  0  0
  -50.9341   -2.4166   15.5685 O   0  0  0  0  0  0
  -47.5854    0.1973   13.3613 O   0  0  0  0  0  0
  -50.1925   -1.1589   13.1449 O   0  0  0  0  0  0
  -42.9086   -1.1429   19.3867 O   0  0  0  0  0  0
  -43.1683    1.3681   18.2147 O   0  0  0  0  0  0
  -45.8911    1.9144   18.8706 O   0  0  0  0  0  0
  -49.9899   -8.5633   17.8877 O   0  0  0  0  0  0
  -51.7607   -8.7343   20.0231 O   0  0  0  0  0  0
  -47.3275   -2.7464   15.6651 C   0  0  0  0  0  0
  -46.9134   -1.4532   14.9594 C   0  0  0  0  0  0
  -47.8753   -1.1254   13.8170 C   0  0  0  0  0  0
  -49.3295   -1.1968   14.2815 C   0  0  0  0  0  0
  -43.6441   -1.0044   18.1699 C   0  0  0  0  0  0
  -44.7639   -2.0435   18.1826 C   0  0  0  0  0  0
  -44.2144    0.4111   18.0629 C   0  0  0  0  0  0
  -45.2786    0.6553   19.1330 C   0  0  0  0  0  0
  -49.6060   -2.4889   15.0488 C   0  0  0  0  0  0
  -46.4523   -3.0322   16.8811 C   0  0  0  0  0  0
  -46.3284   -0.4643   19.0969 C   0  0  0  0  0  0
  -47.3315   -0.3451   20.2421 C   0  0  0  0  0  0
  -51.3206   -3.6426   16.1689 C   0  0  0  0  0  0
  -50.7358   -3.7341   17.5738 C   0  0  0  0  0  0
  -51.0074   -5.0688   18.2232 C   0  0  0  0  0  0
  -50.3701   -6.2163   17.7528 C   0  0  0  0  0  0
  -51.8956   -5.1539   19.2964 C   0  0  0  0  0  0
  -50.6201   -7.4496   18.3549 C   0  0  0  0  0  0
  -52.1457   -6.3875   19.8972 C   0  0  0  0  0  0
  -51.5084   -7.5349   19.4267 C   0  0  0  0  0  0
  -45.6361   -2.2237   13.6914 H   0  0  0  0  0  0
  -46.7260    0.1793   12.9059 H   0  0  0  0  0  0
  -49.8527   -1.7900   12.4871 H   0  0  0  0  0  0
  -43.5444   -1.1034   20.1208 H   0  0  0  0  0  0
  -43.5609    2.2515   18.1058 H   0  0  0  0  0  0
  -45.2121    2.6051   18.9607 H   0  0  0  0  0  0
  -50.2647   -9.3295   18.4203 H   0  0  0  0  0  0
  -52.4110   -8.6035   20.7344 H   0  0  0  0  0  0
  1 13  1  0  0  0
  1 21  1  0  0  0
  2 18  1  0  0  0
  2 22  1  0  0  0
  3 18  1  0  0  0
  3 23  1  0  0  0
  4 14  1  0  0  0
  4 33  1  0  0  0
  5 21  1  0  0  0
  5 25  1  0  0  0
  6 15  1  0  0  0
  6 34  1  0  0  0
  7 16  1  0  0  0
  7 35  1  0  0  0
  8 17  1  0  0  0
  8 36  1  0  0  0
  9 19  1  0  0  0
  9 37  1  0  0  0
 10 20  1  0  0  0
 10 38  1  0  0  0
 11 30  1  0  0  0
 11 39  1  0  0  0
 12 32  1  0  0  0
 12 40  1  0  0  0
 13 14  1  0  0  0
 13 22  1  0  0  0
 14 15  1  0  0  0
 15 16  1  0  0  0
 16 21  1  0  0  0
 17 18  1  0  0  0
 19 17  1  0  0  0
 20 19  1  0  0  0
 23 20  1  0  0  0
 23 24  1  0  0  0
 25 26  1  0  0  0
 26 27  1  0  0  0
 27 28  2  0  0  0
 27 29  1  0  0  0
 28 30  1  0  0  0
 29 31  2  0  0  0
 30 32  2  0  0  0
 31 32  1  0  0  0
M  END
>  <CHROM.0>
52.83574238,-179.13240396,179.14020253

>  <CHROM.1>
-53.91349684,161.70270368,70.53114831,-66.04403671,80.33833033,70.18627565
47.10730627,-52.69587428,177.77916565,-63.40564854,179.30879902,-178.99992301
-129.50240446,-174.90927073,69.77962107,-47.93192341,-2.63138336,17.25900878
2.64923795,0.66925568,2.16144760

>  <Name>
Forsythoside_E.pdb

>  <RI>
-7.77178e+08

>  <Rbt.Current_Directory>
/root/miniconda3/envs/rdock/share/rxdock-2013.1.1_148c5bd1-0/data/ligands/prepped_ligands/Forsythoside_E

>  <Rbt.Executable>
rbdock/0.1.0

>  <Rbt.Library>
librxdock.so/0.1.0

>  <Rbt.Parameter_File>
/root/miniconda3/envs/rdock/share/rxdock-2013.1.1_148c5bd1-0/data/scripts/dock.prm

>  <Rbt.Receptor>
def.prm

>  <SCORE>
-8.45626

>  <SCORE.INTER>
-14.5243

>  <SCORE.INTER.CONST>
1

>  <SCORE.INTER.POLAR>
-2.05364

>  <SCORE.INTER.REPUL>
0.0142599

>  <SCORE.INTER.ROT>
7

>  <SCORE.INTER.VDW>
-20.0133

>  <SCORE.INTER.norm>
-0.453885

>  <SCORE.INTRA>
7.07468

>  <SCORE.INTRA.DIHEDRAL>
7.82156

>  <SCORE.INTRA.DIHEDRAL.0>
3.93665

>  <SCORE.INTRA.POLAR>
-0.151776

>  <SCORE.INTRA.POLAR.0>
0

>  <SCORE.INTRA.REPUL>
0

>  <SCORE.INTRA.REPUL.0>
0

>  <SCORE.INTRA.VDW>
3.67994

>  <SCORE.INTRA.VDW.0>
-1.0842

>  <SCORE.INTRA.norm>
0.221084

>  <SCORE.RESTR>
0

>  <SCORE.RESTR.CAVITY>
0

>  <SCORE.RESTR.norm>
0

>  <SCORE.SYSTEM>
-1.0066

>  <SCORE.SYSTEM.CONST>
0

>  <SCORE.SYSTEM.DIHEDRAL>
0.136771

>  <SCORE.SYSTEM.VDW>
-1.07498

>  <SCORE.SYSTEM.norm>
-0.0314562

>  <SCORE.heavy>
32

>  <SCORE.norm>
-0.264258

$$$$
Forsythoside_E.pdb
  RxDock  02242112583D
librxdock.so/0.1.0
 40 42  0  0  0  0  0  0  0  0999 V2000
  -48.1601   -3.6487   16.0134 O   0  0  0  0  0  0
  -49.5286   -5.2443   18.0900 O   0  0  0  0  0  0
  -51.8161   -5.8444   17.8959 O   0  0  0  0  0  0
  -50.8682   -5.3629   14.2418 O   0  0  0  0  0  0
  -46.9305   -1.7225   15.5394 O   0  0  0  0  0  0
  -49.5332   -3.8796   12.1497 O   0  0  0  0  0  0
  -48.4768   -1.3378   13.2013 O   0  0  0  0  0  0
  -51.7402   -6.4647   20.7009 O   0  0  0  0  0  0
  -51.7588   -3.7997   21.5037 O   0  0  0  0  0  0
  -53.0351   -2.6332   19.2337 O   0  0  0  0  0  0
  -42.0143   -1.3313   19.2817 O   0  0  0  0  0  0
  -43.5701    0.8230   20.0961 O   0  0  0  0  0  0
  -49.3860   -4.3667   15.8619 C   0  0  0  0  0  0
  -49.6042   -4.7214   14.3894 C   0  0  0  0  0  0
  -49.5685   -3.4664   13.5169 C   0  0  0  0  0  0
  -48.3369   -2.6151   13.8236 C   0  0  0  0  0  0
  -50.8312   -5.5402   20.1009 C   0  0  0  0  0  0
  -50.6096   -5.9785   18.6543 C   0  0  0  0  0  0
  -51.4106   -4.1256   20.1598 C   0  0  0  0  0  0
  -52.6517   -4.0046   19.2753 C   0  0  0  0  0  0
  -48.1701   -2.3988   15.3269 C   0  0  0  0  0  0
  -49.3008   -5.6129   16.7372 C   0  0  0  0  0  0
  -52.3415   -4.5130   17.8603 C   0  0  0  0  0  0
  -53.5884   -4.5499   16.9796 C   0  0  0  0  0  0
  -45.8308   -2.5203   15.1304 C   0  0  0  0  0  0
  -44.5612   -1.6766   15.1139 C   0  0  0  0  0  0
  -44.2948   -1.0137   16.4431 C   0  0  0  0  0  0
  -43.2683   -1.4813   17.2628 C   0  0  0  0  0  0
  -45.0755    0.0690   16.8509 C   0  0  0  0  0  0
  -43.0212   -0.8667   18.4906 C   0  0  0  0  0  0
  -44.8284    0.6821   18.0790 C   0  0  0  0  0  0
  -43.8019    0.2146   18.8987 C   0  0  0  0  0  0
  -51.5536   -4.7550   14.5680 H   0  0  0  0  0  0
  -49.5939   -3.0853   11.5915 H   0  0  0  0  0  0
  -48.5227   -1.4744   12.2392 H   0  0  0  0  0  0
  -52.5731   -6.4244   20.2015 H   0  0  0  0  0  0
  -52.3618   -4.4914   21.8263 H   0  0  0  0  0  0
  -53.8910   -2.5728   18.7755 H   0  0  0  0  0  0
  -41.6894   -2.1734   18.9189 H   0  0  0  0  0  0
  -42.6170    0.9961   20.1839 H   0  0  0  0  0  0
  1 13  1  0  0  0
  1 21  1  0  0  0
  2 18  1  0  0  0
  2 22  1  0  0  0
  3 18  1  0  0  0
  3 23  1  0  0  0
  4 14  1  0  0  0
  4 33  1  0  0  0
  5 21  1  0  0  0
  5 25  1  0  0  0
  6 15  1  0  0  0
  6 34  1  0  0  0
  7 16  1  0  0  0
  7 35  1  0  0  0
  8 17  1  0  0  0
  8 36  1  0  0  0
  9 19  1  0  0  0
  9 37  1  0  0  0
 10 20  1  0  0  0
 10 38  1  0  0  0
 11 30  1  0  0  0
 11 39  1  0  0  0
 12 32  1  0  0  0
 12 40  1  0  0  0
 13 14  1  0  0  0
 13 22  1  0  0  0
 14 15  1  0  0  0
 15 16  1  0  0  0
 16 21  1  0  0  0
 17 18  1  0  0  0
 19 17  1  0  0  0
 20 19  1  0  0  0
 23 20  1  0  0  0
 23 24  1  0  0  0
 25 26  1  0  0  0
 26 27  1  0  0  0
 27 28  2  0  0  0
 27 29  1  0  0  0
 28 30  1  0  0  0
 29 31  2  0  0  0
 30 32  2  0  0  0
 31 32  1  0  0  0
M  END
>  <CHROM.0>
-58.00184734,176.74305210,-172.40597212

>  <CHROM.1>
-55.71376128,123.63981032,58.48068755,56.64045860,168.98674865,174.82386861
-62.24157954,-60.83364852,-55.13817028,-172.25075920,-10.11117553,47.58405268
77.70075722,55.54609344,106.74728708,-48.47130808,-3.13566937,17.09717435
0.06915300,-0.50125385,-1.59815329

>  <Name>
Forsythoside_E.pdb

>  <RI>
-7.77178e+08

>  <Rbt.Current_Directory>
/root/miniconda3/envs/rdock/share/rxdock-2013.1.1_148c5bd1-0/data/ligands/prepped_ligands/Forsythoside_E

>  <Rbt.Executable>
rbdock/0.1.0

>  <Rbt.Library>
librxdock.so/0.1.0

>  <Rbt.Parameter_File>
/root/miniconda3/envs/rdock/share/rxdock-2013.1.1_148c5bd1-0/data/scripts/dock.prm

>  <Rbt.Receptor>
def.prm

>  <SCORE>
-14.8968

>  <SCORE.INTER>
-20.3373

>  <SCORE.INTER.CONST>
1

>  <SCORE.INTER.POLAR>
-3.55776

>  <SCORE.INTER.REPUL>
0.304686

>  <SCORE.INTER.ROT>
7

>  <SCORE.INTER.VDW>
-22.1643

>  <SCORE.INTER.norm>
-0.63554

>  <SCORE.INTRA>
6.4394

>  <SCORE.INTRA.DIHEDRAL>
9.1941

>  <SCORE.INTRA.DIHEDRAL.0>
3.93665

>  <SCORE.INTRA.POLAR>
-6.78494e-05

>  <SCORE.INTRA.POLAR.0>
0

>  <SCORE.INTRA.REPUL>
0

>  <SCORE.INTRA.REPUL.0>
0

>  <SCORE.INTRA.VDW>
1.84258

>  <SCORE.INTRA.VDW.0>
-1.0842

>  <SCORE.INTRA.norm>
0.201231

>  <SCORE.RESTR>
0

>  <SCORE.RESTR.CAVITY>
0

>  <SCORE.RESTR.norm>
0

>  <SCORE.SYSTEM>
-0.998957

>  <SCORE.SYSTEM.CONST>
0

>  <SCORE.SYSTEM.DIHEDRAL>
0.195177

>  <SCORE.SYSTEM.POLAR>
-0.0157278

>  <SCORE.SYSTEM.VDW>
-1.04307

>  <SCORE.SYSTEM.norm>
-0.0312174

>  <SCORE.heavy>
32

>  <SCORE.norm>
-0.465526

$$$$
Forsythoside_E.pdb
  RxDock  02242112583D
librxdock.so/0.1.0
 40 42  0  0  0  0  0  0  0  0999 V2000
  -47.6149   -3.0866   18.1868 O   0  0  0  0  0  0
  -45.9675   -1.0231   17.5388 O   0  0  0  0  0  0
  -44.7167   -0.3885   19.4528 O   0  0  0  0  0  0
  -46.1701   -3.4195   14.8383 O   0  0  0  0  0  0
  -49.6561   -3.7520   19.1020 O   0  0  0  0  0  0
  -49.0160   -3.5980   14.3603 O   0  0  0  0  0  0
  -50.3604   -4.9215   16.6238 O   0  0  0  0  0  0
  -44.4436    2.2003   18.2352 O   0  0  0  0  0  0
  -47.0591    2.9701   18.7945 O   0  0  0  0  0  0
  -47.5627    1.3134   21.0626 O   0  0  0  0  0  0
  -52.5110   -2.5826   14.2961 O   0  0  0  0  0  0
  -53.9456   -4.9358   14.6562 O   0  0  0  0  0  0
  -46.5984   -3.3139   17.2088 C   0  0  0  0  0  0
  -47.1707   -3.1090   15.8044 C   0  0  0  0  0  0
  -48.3887   -4.0049   15.5777 C   0  0  0  0  0  0
  -49.3857   -3.8838   16.7296 C   0  0  0  0  0  0
  -45.5222    1.3193   17.9168 C   0  0  0  0  0  0
  -45.0166   -0.1129   18.0806 C   0  0  0  0  0  0
  -46.7078    1.5890   18.8452 C   0  0  0  0  0  0
  -46.3723    1.2080   20.2872 C   0  0  0  0  0  0
  -48.6906   -4.0170   18.0838 C   0  0  0  0  0  0
  -45.4550   -2.3474   17.5001 C   0  0  0  0  0  0
  -45.8288   -0.2267   20.3400 C   0  0  0  0  0  0
  -45.3416   -0.6029   21.7375 C   0  0  0  0  0  0
  -50.0756   -2.3968   19.0751 C   0  0  0  0  0  0
  -51.5983   -2.3292   19.1002 C   0  0  0  0  0  0
  -52.2236   -3.0204   17.9134 C   0  0  0  0  0  0
  -52.0816   -2.4793   16.6362 C   0  0  0  0  0  0
  -52.9427   -4.2028   18.0947 C   0  0  0  0  0  0
  -52.6582   -3.1199   15.5392 C   0  0  0  0  0  0
  -53.5196   -4.8420   16.9975 C   0  0  0  0  0  0
  -53.3776   -4.3009   15.7203 C   0  0  0  0  0  0
  -45.4709   -2.7468   14.9030 H   0  0  0  0  0  0
  -49.7241   -4.2333   14.1573 H   0  0  0  0  0  0
  -50.7078   -4.9175   15.7151 H   0  0  0  0  0  0
  -44.6904    3.0897   17.9304 H   0  0  0  0  0  0
  -47.9350    3.0652   19.2067 H   0  0  0  0  0  0
  -47.8544    2.2412   21.0432 H   0  0  0  0  0  0
  -53.2907   -2.8074   13.7597 H   0  0  0  0  0  0
  -53.4562   -5.7575   14.4799 H   0  0  0  0  0  0
  1 13  1  0  0  0
  1 21  1  0  0  0
  2 18  1  0  0  0
  2 22  1  0  0  0
  3 18  1  0  0  0
  3 23  1  0  0  0
  4 14  1  0  0  0
  4 33  1  0  0  0
  5 21  1  0  0  0
  5 25  1  0  0  0
  6 15  1  0  0  0
  6 34  1  0  0  0
  7 16  1  0  0  0
  7 35  1  0  0  0
  8 17  1  0  0  0
  8 36  1  0  0  0
  9 19  1  0  0  0
  9 37  1  0  0  0
 10 20  1  0  0  0
 10 38  1  0  0  0
 11 30  1  0  0  0
 11 39  1  0  0  0
 12 32  1  0  0  0
 12 40  1  0  0  0
 13 14  1  0  0  0
 13 22  1  0  0  0
 14 15  1  0  0  0
 15 16  1  0  0  0
 16 21  1  0  0  0
 17 18  1  0  0  0
 19 17  1  0  0  0
 20 19  1  0  0  0
 23 20  1  0  0  0
 23 24  1  0  0  0
 25 26  1  0  0  0
 26 27  1  0  0  0
 27 28  2  0  0  0
 27 29  1  0  0  0
 28 30  1  0  0  0
 29 31  2  0  0  0
 30 32  2  0  0  0
 31 32  1  0  0  0
M  END
>  <CHROM.0>
49.62914606,173.38237145,-66.49823830

>  <CHROM.1>
-64.64552138,167.63439750,-67.78043524,53.51016548,130.76537433,173.16304987
-50.23291361,166.65791836,165.94001935,-62.36212505,-149.72000074,109.14335070
-54.62352503,-60.51498673,-68.75865678,-48.62228665,-1.99999716,17.61712683
-0.68777990,-0.22513132,-2.28492957

>  <Name>
Forsythoside_E.pdb

>  <RI>
-7.77178e+08

>  <Rbt.Current_Directory>
/root/miniconda3/envs/rdock/share/rxdock-2013.1.1_148c5bd1-0/data/ligands/prepped_ligands/Forsythoside_E

>  <Rbt.Executable>
rbdock/0.1.0

>  <Rbt.Library>
librxdock.so/0.1.0

>  <Rbt.Parameter_File>
/root/miniconda3/envs/rdock/share/rxdock-2013.1.1_148c5bd1-0/data/scripts/dock.prm

>  <Rbt.Receptor>
def.prm

>  <SCORE>
-7.20593

>  <SCORE.INTER>
-11.927

>  <SCORE.INTER.CONST>
1

>  <SCORE.INTER.POLAR>
-2.34565

>  <SCORE.INTER.REPUL>
0.37545

>  <SCORE.INTER.ROT>
7

>  <SCORE.INTER.VDW>
-18.2291

>  <SCORE.INTER.norm>
-0.37272

>  <SCORE.INTRA>
5.48823

>  <SCORE.INTRA.DIHEDRAL>
12.935

>  <SCORE.INTRA.DIHEDRAL.0>
3.93665

>  <SCORE.INTRA.POLAR>
-0.00679775

>  <SCORE.INTRA.POLAR.0>
0

>  <SCORE.INTRA.REPUL>
0

>  <SCORE.INTRA.REPUL.0>
0

>  <SCORE.INTRA.VDW>
-0.956166

>  <SCORE.INTRA.VDW.0>
-1.0842

>  <SCORE.INTRA.norm>
0.171507

>  <SCORE.RESTR>
0

>  <SCORE.RESTR.CAVITY>
0

>  <SCORE.RESTR.norm>
0

>  <SCORE.SYSTEM>
-0.767116

>  <SCORE.SYSTEM.CONST>
0

>  <SCORE.SYSTEM.DIHEDRAL>
0.588744

>  <SCORE.SYSTEM.VDW>
-1.06149

>  <SCORE.SYSTEM.norm>
-0.0239724

>  <SCORE.heavy>
32

>  <SCORE.norm>
-0.225185

$$$$
Forsythoside_E.pdb
  RxDock  02242112593D
librxdock.so/0.1.0
 40 42  0  0  0  0  0  0  0  0999 V2000
  -49.2292   -2.6522   15.8410 O   0  0  0  0  0  0
  -46.0570   -1.6282   16.8342 O   0  0  0  0  0  0
  -46.8581   -1.1285   19.0112 O   0  0  0  0  0  0
  -46.3360   -0.8567   14.4934 O   0  0  0  0  0  0
  -51.4501   -2.8228   15.1440 O   0  0  0  0  0  0
  -48.5891    0.6141   13.4351 O   0  0  0  0  0  0
  -50.8481   -1.2019   12.9044 O   0  0  0  0  0  0
  -44.2209   -0.1488   19.5979 O   0  0  0  0  0  0
  -44.5471    2.2060   18.1506 O   0  0  0  0  0  0
  -47.3881    2.4437   18.2725 O   0  0  0  0  0  0
  -55.6937   -8.3603   14.5179 O   0  0  0  0  0  0
  -54.3456   -9.9209   16.3813 O   0  0  0  0  0  0
  -47.8631   -2.4403   15.4804 C   0  0  0  0  0  0
  -47.6835   -1.0255   14.9256 C   0  0  0  0  0  0
  -48.6274   -0.7794   13.7483 C   0  0  0  0  0  0
  -50.0598   -1.1844   14.0945 C   0  0  0  0  0  0
  -44.7333   -0.2043   18.2655 C   0  0  0  0  0  0
  -45.7109   -1.3759   18.1917 C   0  0  0  0  0  0
  -45.4321    1.1120   17.9198 C   0  0  0  0  0  0
  -46.6943    1.2999   18.7618 C   0  0  0  0  0  0
  -50.1085   -2.5772   14.7208 C   0  0  0  0  0  0
  -47.0165   -2.6702   16.7281 C   0  0  0  0  0  0
  -47.5853    0.0539   18.6603 C   0  0  0  0  0  0
  -48.7872    0.1321   19.5990 C   0  0  0  0  0  0
  -51.6539   -4.1948   15.4427 C   0  0  0  0  0  0
  -53.1054   -4.4226   15.8490 C   0  0  0  0  0  0
  -53.4396   -5.8875   15.9888 C   0  0  0  0  0  0
  -54.4242   -6.4586   15.1834 C   0  0  0  0  0  0
  -52.7613   -6.6709   16.9237 C   0  0  0  0  0  0
  -54.7312   -7.8133   15.3118 C   0  0  0  0  0  0
  -53.0697   -8.0251   17.0521 C   0  0  0  0  0  0
  -54.0542   -8.5962   16.2467 C   0  0  0  0  0  0
  -46.1866   -1.4493   13.7370 H   0  0  0  0  0  0
  -49.0725    0.7508   12.6022 H   0  0  0  0  0  0
  -51.7474   -1.4867   13.1424 H   0  0  0  0  0  0
  -43.6250    0.6172   19.6522 H   0  0  0  0  0  0
  -44.9713    3.0062   17.7957 H   0  0  0  0  0  0
  -48.1736    2.5815   18.8294 H   0  0  0  0  0  0
  -55.6511   -9.3294   14.5908 H   0  0  0  0  0  0
  -55.3112  -10.0358   16.3646 H   0  0  0  0  0  0
  1 13  1  0  0  0
  1 21  1  0  0  0
  2 18  1  0  0  0
  2 22  1  0  0  0
  3 18  1  0  0  0
  3 23  1  0  0  0
  4 14  1  0  0  0
  4 33  1  0  0  0
  5 21  1  0  0  0
  5 25  1  0  0  0
  6 15  1  0  0  0
  6 34  1  0  0  0
  7 16  1  0  0  0
  7 35  1  0  0  0
  8 17  1  0  0  0
  8 36  1  0  0  0
  9 19  1  0  0  0
  9 37  1  0  0  0
 10 20  1  0  0  0
 10 38  1  0  0  0
 11 30  1  0  0  0
 11 39  1  0  0  0
 12 32  1  0  0  0
 12 40  1  0  0  0
 13 14  1  0  0  0
 13 22  1  0  0  0
 14 15  1  0  0  0
 15 16  1  0  0  0
 16 21  1  0  0  0
 17 18  1  0  0  0
 19 17  1  0  0  0
 20 19  1  0  0  0
 23 20  1  0  0  0
 23 24  1  0  0  0
 25 26  1  0  0  0
 26 27  1  0  0  0
 27 28  2  0  0  0
 27 29  1  0  0  0
 28 30  1  0  0  0
 29 31  2  0  0  0
 30 32  2  0  0  0
 31 32  1  0  0  0
M  END
>  <CHROM.0>
-65.49789907,179.67817553,-62.77154759

>  <CHROM.1>
-53.53181346,150.95539008,65.96868634,-73.41336429,-178.29960556,170.97868683
178.37103929,-177.89519170,171.54623221,-177.95451829,167.78810247,-43.33357714
-135.01564538,171.79842104,-119.07592583,-49.39176284,-2.55815922,16.35932229
2.89294279,0.76400263,2.18515794

>  <Name>
Forsythoside_E.pdb

>  <RI>
-7.77178e+08

>  <Rbt.Current_Directory>
/root/miniconda3/envs/rdock/share/rxdock-2013.1.1_148c5bd1-0/data/ligands/prepped_ligands/Forsythoside_E

>  <Rbt.Executable>
rbdock/0.1.0

>  <Rbt.Library>
librxdock.so/0.1.0

>  <Rbt.Parameter_File>
/root/miniconda3/envs/rdock/share/rxdock-2013.1.1_148c5bd1-0/data/scripts/dock.prm

>  <Rbt.Receptor>
def.prm

>  <SCORE>
-20.3324

>  <SCORE.INTER>
-25.552

>  <SCORE.INTER.CONST>
1

>  <SCORE.INTER.POLAR>
-3.92992

>  <SCORE.INTER.REPUL>
0.00361709

>  <SCORE.INTER.ROT>
7

>  <SCORE.INTER.VDW>
-24.6084

>  <SCORE.INTER.norm>
-0.7985

>  <SCORE.INTRA>
6.24371

>  <SCORE.INTRA.DIHEDRAL>
9.54336

>  <SCORE.INTRA.DIHEDRAL.0>
3.93665

>  <SCORE.INTRA.POLAR>
-0.0488681

>  <SCORE.INTRA.POLAR.0>
0

>  <SCORE.INTRA.REPUL>
0

>  <SCORE.INTRA.REPUL.0>
0

>  <SCORE.INTRA.VDW>
1.63818

>  <SCORE.INTRA.VDW.0>
-1.0842

>  <SCORE.INTRA.norm>
0.195116

>  <SCORE.RESTR>
0

>  <SCORE.RESTR.CAVITY>
0

>  <SCORE.RESTR.norm>
0

>  <SCORE.SYSTEM>
-1.0241

>  <SCORE.SYSTEM.CONST>
0

>  <SCORE.SYSTEM.DIHEDRAL>
0.099956

>  <SCORE.SYSTEM.VDW>
-1.07408

>  <SCORE.SYSTEM.norm>
-0.0320032

>  <SCORE.heavy>
32

>  <SCORE.norm>
-0.635387

$$$$
Forsythoside_E.pdb
  RxDock  02242112593D
librxdock.so/0.1.0
 40 42  0  0  0  0  0  0  0  0999 V2000
  -47.2611   -3.2867   17.3437 O   0  0  0  0  0  0
  -45.6790   -1.6156   18.5793 O   0  0  0  0  0  0
  -44.7845    0.4393   17.7996 O   0  0  0  0  0  0
  -45.0828   -1.7448   14.8361 O   0  0  0  0  0  0
  -49.4292   -4.1446   17.2427 O   0  0  0  0  0  0
  -47.7370   -1.3118   13.7744 O   0  0  0  0  0  0
  -49.5072   -3.5608   14.4753 O   0  0  0  0  0  0
  -47.4567    1.4873   17.9394 O   0  0  0  0  0  0
  -47.4502    1.7039   20.7142 O   0  0  0  0  0  0
  -44.6422    1.9455   21.1610 O   0  0  0  0  0  0
  -53.4235   -3.9228   14.9565 O   0  0  0  0  0  0
  -54.8390   -6.3094   14.7968 O   0  0  0  0  0  0
  -46.0413   -3.0029   16.6561 C   0  0  0  0  0  0
  -46.2877   -1.9564   15.5671 C   0  0  0  0  0  0
  -47.3868   -2.4170   14.6093 C   0  0  0  0  0  0
  -48.6230   -2.8900   15.3733 C   0  0  0  0  0  0
  -47.0316    0.3781   18.7331 C   0  0  0  0  0  0
  -45.9557   -0.3701   17.9481 C   0  0  0  0  0  0
  -46.4840    0.8743   20.0727 C   0  0  0  0  0  0
  -45.1915    1.6670   19.8764 C   0  0  0  0  0  0
  -48.2484   -3.8623   16.4909 C   0  0  0  0  0  0
  -45.0322   -2.5156   17.6908 C   0  0  0  0  0  0
  -44.1964    0.8525   19.0380 C   0  0  0  0  0  0
  -42.9470    1.6587   18.6902 C   0  0  0  0  0  0
  -49.3269   -5.3895   17.9159 C   0  0  0  0  0  0
  -50.6600   -5.7303   18.5721 C   0  0  0  0  0  0
  -51.7741   -5.8804   17.5654 C   0  0  0  0  0  0
  -52.0934   -4.8226   16.7150 C   0  0  0  0  0  0
  -52.4835   -7.0796   17.4847 C   0  0  0  0  0  0
  -53.1221   -4.9627   15.7832 C   0  0  0  0  0  0
  -53.5125   -7.2185   16.5534 C   0  0  0  0  0  0
  -53.8318   -6.1607   15.7031 C   0  0  0  0  0  0
  -45.2942   -1.1979   14.0602 H   0  0  0  0  0  0
  -46.9836   -1.1241   13.1885 H   0  0  0  0  0  0
  -49.7626   -2.9324   13.7780 H   0  0  0  0  0  0
  -46.6905    2.0730   17.8181 H   0  0  0  0  0  0
  -47.6303    2.4552   20.1233 H   0  0  0  0  0  0
  -44.4665    1.0978   21.6044 H   0  0  0  0  0  0
  -52.8940   -3.1489   15.2153 H   0  0  0  0  0  0
  -54.9323   -5.4850   14.2893 H   0  0  0  0  0  0
  1 13  1  0  0  0
  1 21  1  0  0  0
  2 18  1  0  0  0
  2 22  1  0  0  0
  3 18  1  0  0  0
  3 23  1  0  0  0
  4 14  1  0  0  0
  4 33  1  0  0  0
  5 21  1  0  0  0
  5 25  1  0  0  0
  6 15  1  0  0  0
  6 34  1  0  0  0
  7 16  1  0  0  0
  7 35  1  0  0  0
  8 17  1  0  0  0
  8 36  1  0  0  0
  9 19  1  0  0  0
  9 37  1  0  0  0
 10 20  1  0  0  0
 10 38  1  0  0  0
 11 30  1  0  0  0
 11 39  1  0  0  0
 12 32  1  0  0  0
 12 40  1  0  0  0
 13 14  1  0  0  0
 13 22  1  0  0  0
 14 15  1  0  0  0
 15 16  1  0  0  0
 16 21  1  0  0  0
 17 18  1  0  0  0
 19 17  1  0  0  0
 20 19  1  0  0  0
 23 20  1  0  0  0
 23 24  1  0  0  0
 25 26  1  0  0  0
 26 27  1  0  0  0
 27 28  2  0  0  0
 27 29  1  0  0  0
 28 30  1  0  0  0
 29 31  2  0  0  0
 30 32  2  0  0  0
 31 32  1  0  0  0
M  END
>  <CHROM.0>
170.95541294,-60.76608465,-174.87110289

>  <CHROM.1>
-75.27057081,-72.21699453,170.45436746,-83.30822718,-173.47139393,68.32401565
-59.97350508,-62.71113386,-59.85556662,59.79921059,-5.80914843,-0.19930852
-42.72595895,61.83783453,-58.15744532,-48.29094454,-2.36258584,17.19061156
-0.52565506,-0.57021192,-1.97895921

>  <Name>
Forsythoside_E.pdb

>  <RI>
-7.77178e+08

>  <Rbt.Current_Directory>
/root/miniconda3/envs/rdock/share/rxdock-2013.1.1_148c5bd1-0/data/ligands/prepped_ligands/Forsythoside_E

>  <Rbt.Executable>
rbdock/0.1.0

>  <Rbt.Library>
librxdock.so/0.1.0

>  <Rbt.Parameter_File>
/root/miniconda3/envs/rdock/share/rxdock-2013.1.1_148c5bd1-0/data/scripts/dock.prm

>  <Rbt.Receptor>
def.prm

>  <SCORE>
-13.5492

>  <SCORE.INTER>
-14.8582

>  <SCORE.INTER.CONST>
1

>  <SCORE.INTER.POLAR>
-1.83426

>  <SCORE.INTER.REPUL>
0

>  <SCORE.INTER.ROT>
7

>  <SCORE.INTER.VDW>
-21.0217

>  <SCORE.INTER.norm>
-0.464318

>  <SCORE.INTRA>
2.21268

>  <SCORE.INTRA.DIHEDRAL>
3.10296

>  <SCORE.INTRA.DIHEDRAL.0>
3.93665

>  <SCORE.INTRA.POLAR>
-0.147738

>  <SCORE.INTRA.POLAR.0>
0

>  <SCORE.INTRA.REPUL>
0

>  <SCORE.INTRA.REPUL.0>
0

>  <SCORE.INTRA.VDW>
1.16351

>  <SCORE.INTRA.VDW.0>
-1.0842

>  <SCORE.INTRA.norm>
0.0691463

>  <SCORE.RESTR>
0

>  <SCORE.RESTR.CAVITY>
0

>  <SCORE.RESTR.norm>
0

>  <SCORE.SYSTEM>
-0.903705

>  <SCORE.SYSTEM.CONST>
0

>  <SCORE.SYSTEM.DIHEDRAL>
0.268006

>  <SCORE.SYSTEM.POLAR>
-0.0124046

>  <SCORE.SYSTEM.VDW>
-0.995532

>  <SCORE.SYSTEM.norm>
-0.0282408

>  <SCORE.heavy>
32

>  <SCORE.norm>
-0.423413

$$$$
Forsythoside_E.pdb
  RxDock  02242112593D
librxdock.so/0.1.0
 40 42  0  0  0  0  0  0  0  0999 V2000
  -48.3725   -2.2339   15.8163 O   0  0  0  0  0  0
  -46.5905   -0.7965   16.9931 O   0  0  0  0  0  0
  -45.2983    1.1659   17.3243 O   0  0  0  0  0  0
  -47.3768    0.3161   13.3839 O   0  0  0  0  0  0
  -50.3522   -3.4281   16.1354 O   0  0  0  0  0  0
  -50.2614    0.5085   13.4126 O   0  0  0  0  0  0
  -51.4667   -2.1402   13.8759 O   0  0  0  0  0  0
  -47.7106    2.4213   18.2538 O   0  0  0  0  0  0
  -47.6883    1.1188   20.7134 O   0  0  0  0  0  0
  -44.8927    0.5947   20.9432 O   0  0  0  0  0  0
  -54.3979   -7.9891   15.9609 O   0  0  0  0  0  0
  -55.9979   -5.7182   15.8737 O   0  0  0  0  0  0
  -47.5091   -1.5475   14.9082 C   0  0  0  0  0  0
  -48.2168   -0.3112   14.3493 C   0  0  0  0  0  0
  -49.5435   -0.6945   13.6931 C   0  0  0  0  0  0
  -50.3789   -1.5833   14.6139 C   0  0  0  0  0  0
  -47.5218    1.0060   18.3015 C   0  0  0  0  0  0
  -46.6082    0.6193   17.1398 C   0  0  0  0  0  0
  -46.8997    0.6072   19.6411 C   0  0  0  0  0  0
  -45.4738    1.1446   19.7645 C   0  0  0  0  0  0
  -49.5480   -2.7330   15.1818 C   0  0  0  0  0  0
  -46.2407   -1.1770   15.6700 C   0  0  0  0  0  0
  -44.6520    0.7456   18.5308 C   0  0  0  0  0  0
  -43.2641    1.3825   18.5374 C   0  0  0  0  0  0
  -49.7291   -4.6311   16.5566 C   0  0  0  0  0  0
  -50.6126   -5.3374   17.5786 C   0  0  0  0  0  0
  -52.0472   -5.4427   17.1224 C   0  0  0  0  0  0
  -52.5705   -6.6788   16.7450 C   0  0  0  0  0  0
  -52.8505   -4.3022   17.0801 C   0  0  0  0  0  0
  -53.8974   -6.7757   16.3253 C   0  0  0  0  0  0
  -54.1767   -4.3999   16.6595 C   0  0  0  0  0  0
  -54.7001   -5.6359   16.2821 C   0  0  0  0  0  0
  -47.9462    0.7143   12.7036 H   0  0  0  0  0  0
  -49.7771    0.9969   12.7249 H   0  0  0  0  0  0
  -51.0980   -2.6540   13.1366 H   0  0  0  0  0  0
  -46.8311    2.8349   18.2380 H   0  0  0  0  0  0
  -48.5835    0.7496   20.6212 H   0  0  0  0  0  0
  -44.0270    1.0172   21.0783 H   0  0  0  0  0  0
  -53.6825   -8.5238   15.5753 H   0  0  0  0  0  0
  -56.1909   -4.9718   15.2807 H   0  0  0  0  0  0
  1 13  1  0  0  0
  1 21  1  0  0  0
  2 18  1  0  0  0
  2 22  1  0  0  0
  3 18  1  0  0  0
  3 23  1  0  0  0
  4 14  1  0  0  0
  4 33  1  0  0  0
  5 21  1  0  0  0
  5 25  1  0  0  0
  6 15  1  0  0  0
  6 34  1  0  0  0
  7 16  1  0  0  0
  7 35  1  0  0  0
  8 17  1  0  0  0
  8 36  1  0  0  0
  9 19  1  0  0  0
  9 37  1  0  0  0
 10 20  1  0  0  0
 10 38  1  0  0  0
 11 30  1  0  0  0
 11 39  1  0  0  0
 12 32  1  0  0  0
 12 40  1  0  0  0
 13 14  1  0  0  0
 13 22  1  0  0  0
 14 15  1  0  0  0
 15 16  1  0  0  0
 16 21  1  0  0  0
 17 18  1  0  0  0
 19 17  1  0  0  0
 20 19  1  0  0  0
 23 20  1  0  0  0
 23 24  1  0  0  0
 25 26  1  0  0  0
 26 27  1  0  0  0
 27 28  2  0  0  0
 27 29  1  0  0  0
 28 30  1  0  0  0
 29 31  2  0  0  0
 30 32  2  0  0  0
 31 32  1  0  0  0
M  END
>  <CHROM.0>
178.30775566,61.98364353,66.63526249

>  <CHROM.1>
-80.46420727,-100.72103436,147.26467812,-68.59077600,179.63080254,67.15745071
59.08274418,-53.67788243,59.07410942,-173.37465724,-31.49501564,-136.91982885
-37.99783194,48.52558604,108.67346740,-49.22226950,-1.84840602,16.65881014
-0.00440889,-0.73484623,-1.25689688

>  <Name>
Forsythoside_E.pdb

>  <RI>
-7.77178e+08

>  <Rbt.Current_Directory>
/root/miniconda3/envs/rdock/share/rxdock-2013.1.1_148c5bd1-0/data/ligands/prepped_ligands/Forsythoside_E

>  <Rbt.Executable>
rbdock/0.1.0

>  <Rbt.Library>
librxdock.so/0.1.0

>  <Rbt.Parameter_File>
/root/miniconda3/envs/rdock/share/rxdock-2013.1.1_148c5bd1-0/data/scripts/dock.prm

>  <Rbt.Receptor>
def.prm

>  <SCORE>
-10.5464

>  <SCORE.INTER>
-18.1847

>  <SCORE.INTER.CONST>
1

>  <SCORE.INTER.POLAR>
-2.80119

>  <SCORE.INTER.REPUL>
0.444667

>  <SCORE.INTER.ROT>
7

>  <SCORE.INTER.VDW>
-23.284

>  <SCORE.INTER.norm>
-0.568273

>  <SCORE.INTRA>
8.53679

>  <SCORE.INTRA.DIHEDRAL>
14.9601

>  <SCORE.INTRA.DIHEDRAL.0>
3.93665

>  <SCORE.INTRA.POLAR>
-0.00255842

>  <SCORE.INTRA.POLAR.0>
0

>  <SCORE.INTRA.REPUL>
0

>  <SCORE.INTRA.REPUL.0>
0

>  <SCORE.INTRA.VDW>
1.06545

>  <SCORE.INTRA.VDW.0>
-1.0842

>  <SCORE.INTRA.norm>
0.266775

>  <SCORE.RESTR>
0.0126905

>  <SCORE.RESTR.CAVITY>
0.0126905

>  <SCORE.RESTR.norm>
0.000396578

>  <SCORE.SYSTEM>
-0.911182

>  <SCORE.SYSTEM.CONST>
0

>  <SCORE.SYSTEM.DIHEDRAL>
0.130144

>  <SCORE.SYSTEM.POLAR>
-0.0133043

>  <SCORE.SYSTEM.VDW>
-0.931019

>  <SCORE.SYSTEM.norm>
-0.0284744

>  <SCORE.heavy>
32

>  <SCORE.norm>
-0.329576

$$$$
