Forsythoside_E.pdb
 OpenBabel02182114013D

 62 64  0  0  1  0  0  0  0  0999 V2000
    0.8450    1.6720   -0.7760 O   0  0  0  0  0  0  0  0  0  0  0  0
    2.4890   -0.5390   -0.3830 O   0  0  0  0  0  0  0  0  0  0  0  0
    2.0020   -2.5200   -1.5950 O   0  0  0  0  0  0  0  0  0  0  0  0
    4.3650    2.4170   -0.0940 O   0  0  0  0  0  0  0  0  0  0  0  0
   -1.1370    2.7930   -0.2640 O   0  0  0  0  0  0  0  0  0  0  0  0
    2.9590    3.8920    1.9570 O   0  0  0  0  0  0  0  0  0  0  0  0
    0.3710    4.8640    0.9370 O   0  0  0  0  0  0  0  0  0  0  0  0
    3.7820   -3.8830    0.2030 O   0  0  0  0  0  0  0  0  0  0  0  0
    1.9810   -3.8740    2.3250 O   0  0  0  0  0  0  0  0  0  0  0  0
   -0.4660   -3.7220    0.8650 O   0  0  0  0  0  0  0  0  0  0  0  0
   -4.4990   -2.2130   -1.0050 O   0  0  0  0  0  0  0  0  0  0  0  0
   -4.5220   -2.1280    1.7730 O   0  0  0  0  0  0  0  0  0  0  0  0
    2.2470    1.7560   -1.0380 C   0  0  1  0  0  0  0  0  0  0  0  0
    2.9810    2.2590    0.2070 C   0  0  2  0  0  0  0  0  0  0  0  0
    2.4080    3.5980    0.6720 C   0  0  1  0  0  0  0  0  0  0  0  0
    0.8840    3.5420    0.7720 C   0  0  2  0  0  0  0  0  0  0  0  0
    3.1200   -2.6690    0.5620 C   0  0  1  0  0  0  0  0  0  0  0  0
    2.9150   -1.8560   -0.7150 C   0  0  2  0  0  0  0  0  0  0  0  0
    1.7800   -2.9830    1.2300 C   0  0  1  0  0  0  0  0  0  0  0  0
    0.8080   -3.6190    0.2360 C   0  0  2  0  0  0  0  0  0  0  0  0
    0.2650    2.9430   -0.4900 C   0  0  1  0  0  0  0  0  0  0  0  0
    2.7220    0.3670   -1.4520 C   0  0  0  0  0  0  0  0  0  0  0  0
    0.7080   -2.7550   -1.0290 C   0  0  2  0  0  0  0  0  0  0  0  0
   -0.1370   -3.4220   -2.1120 C   0  0  0  0  0  0  0  0  0  0  0  0
   -1.8480    2.6840   -1.4870 C   0  0  0  0  0  0  0  0  0  0  0  0
   -3.3390    2.5400   -1.2040 C   0  0  0  0  0  0  0  0  0  0  0  0
   -3.6560    1.2940   -0.4140 C   0  0  0  0  0  0  0  0  0  0  0  0
   -3.9370    0.1000   -1.0770 C   0  0  0  0  0  0  0  0  0  0  0  0
   -3.6660    1.3370    0.9810 C   0  0  0  0  0  0  0  0  0  0  0  0
   -4.2280   -1.0520   -0.3460 C   0  0  0  0  0  0  0  0  0  0  0  0
   -3.9580    0.1850    1.7110 C   0  0  0  0  0  0  0  0  0  0  0  0
   -4.2390   -1.0090    1.0480 C   0  0  0  0  0  0  0  0  0  0  0  0
    2.4160    2.4330   -1.8870 H   0  0  0  0  0  0  0  0  0  0  0  0
    2.9070    1.5340    1.0270 H   0  0  0  0  0  0  0  0  0  0  0  0
    2.7280    4.4100    0.0090 H   0  0  0  0  0  0  0  0  0  0  0  0
    0.5770    2.9720    1.6580 H   0  0  0  0  0  0  0  0  0  0  0  0
    3.7650   -2.1390    1.2730 H   0  0  0  0  0  0  0  0  0  0  0  0
    3.8740   -1.8070   -1.2450 H   0  0  0  0  0  0  0  0  0  0  0  0
    1.3400   -2.0670    1.6430 H   0  0  0  0  0  0  0  0  0  0  0  0
    1.1370   -4.6360   -0.0080 H   0  0  0  0  0  0  0  0  0  0  0  0
    0.4230    3.6230   -1.3390 H   0  0  0  0  0  0  0  0  0  0  0  0
    3.7870    0.3870   -1.7070 H   0  0  0  0  0  0  0  0  0  0  0  0
    2.1520    0.0350   -2.3280 H   0  0  0  0  0  0  0  0  0  0  0  0
    0.2390   -1.7910   -0.7960 H   0  0  0  0  0  0  0  0  0  0  0  0
   -1.1610   -3.5970   -1.7700 H   0  0  0  0  0  0  0  0  0  0  0  0
   -0.1720   -2.7930   -3.0080 H   0  0  0  0  0  0  0  0  0  0  0  0
    0.3020   -4.3780   -2.4160 H   0  0  0  0  0  0  0  0  0  0  0  0
    4.4430    3.0570   -0.8220 H   0  0  0  0  0  0  0  0  0  0  0  0
    2.6740    3.1970    2.5750 H   0  0  0  0  0  0  0  0  0  0  0  0
    0.6320    5.3880    0.1600 H   0  0  0  0  0  0  0  0  0  0  0  0
    4.6510   -3.6470   -0.1630 H   0  0  0  0  0  0  0  0  0  0  0  0
    2.6070   -3.4500    2.9370 H   0  0  0  0  0  0  0  0  0  0  0  0
   -0.7830   -2.8220    1.0540 H   0  0  0  0  0  0  0  0  0  0  0  0
   -1.6890    3.5880   -2.0870 H   0  0  0  0  0  0  0  0  0  0  0  0
   -1.4830    1.8190   -2.0540 H   0  0  0  0  0  0  0  0  0  0  0  0
   -3.6960    3.4140   -0.6430 H   0  0  0  0  0  0  0  0  0  0  0  0
   -3.8980    2.5310   -2.1480 H   0  0  0  0  0  0  0  0  0  0  0  0
   -3.9260    0.0680   -2.1640 H   0  0  0  0  0  0  0  0  0  0  0  0
   -3.4490    2.2610    1.5100 H   0  0  0  0  0  0  0  0  0  0  0  0
   -3.9620    0.2320    2.7970 H   0  0  0  0  0  0  0  0  0  0  0  0
   -4.4420   -2.0540   -1.9630 H   0  0  0  0  0  0  0  0  0  0  0  0
   -4.4820   -1.9100    2.7200 H   0  0  0  0  0  0  0  0  0  0  0  0
  1 13  1  0  0  0  0
  1 21  1  0  0  0  0
  2 18  1  0  0  0  0
  2 22  1  0  0  0  0
  3 18  1  0  0  0  0
  3 23  1  0  0  0  0
  4 14  1  0  0  0  0
  4 48  1  0  0  0  0
  5 21  1  0  0  0  0
  5 25  1  0  0  0  0
  6 15  1  0  0  0  0
  6 49  1  0  0  0  0
  7 16  1  0  0  0  0
  7 50  1  0  0  0  0
  8 17  1  0  0  0  0
  8 51  1  0  0  0  0
  9 19  1  0  0  0  0
  9 52  1  0  0  0  0
 10 20  1  0  0  0  0
 10 53  1  0  0  0  0
 11 30  1  0  0  0  0
 11 61  1  0  0  0  0
 12 32  1  0  0  0  0
 12 62  1  0  0  0  0
 13 14  1  1  0  0  0
 13 22  1  0  0  0  0
 13 33  1  0  0  0  0
 14 15  1  1  0  0  0
 14 34  1  0  0  0  0
 15 16  1  1  0  0  0
 15 35  1  0  0  0  0
 16 21  1  6  0  0  0
 16 36  1  0  0  0  0
 17 18  1  6  0  0  0
 17 37  1  0  0  0  0
 18 38  1  6  0  0  0
 19 17  1  6  0  0  0
 19 39  1  0  0  0  0
 20 19  1  1  0  0  0
 20 40  1  0  0  0  0
 21 41  1  6  0  0  0
 22 42  1  0  0  0  0
 22 43  1  0  0  0  0
 23 20  1  1  0  0  0
 23 24  1  0  0  0  0
 23 44  1  0  0  0  0
 24 45  1  0  0  0  0
 24 46  1  0  0  0  0
 24 47  1  0  0  0  0
 25 26  1  0  0  0  0
 25 54  1  0  0  0  0
 25 55  1  0  0  0  0
 26 27  1  0  0  0  0
 26 56  1  0  0  0  0
 26 57  1  0  0  0  0
 27 28  2  0  0  0  0
 27 29  1  0  0  0  0
 28 30  1  0  0  0  0
 28 58  1  0  0  0  0
 29 31  2  0  0  0  0
 29 59  1  0  0  0  0
 30 32  2  0  0  0  0
 31 32  1  0  0  0  0
 31 60  1  0  0  0  0
M  END
$$$$
