3663
  RxDock  02242113003D
librxdock.so/0.1.0
 44 51  0  0  0  0  0  0  0  0999 V2000
  -44.0085    0.2300   21.5328 O   0  0  0  0  0  0
  -50.4656   -2.8262   14.8805 O   0  0  0  0  0  0
  -42.7940   -2.3621   15.9654 O   0  0  0  0  0  0
  -44.2354   -2.5996   14.3089 O   0  0  0  0  0  0
  -42.0990   -0.4317   20.0368 O   0  0  0  0  0  0
  -48.6094   -3.3583   13.2699 O   0  0  0  0  0  0
  -45.9507    0.6215   23.0559 O   0  0  0  0  0  0
  -52.2545   -2.0318   16.4337 O   0  0  0  0  0  0
  -46.7461   -1.0790   18.6615 C   0  0  0  0  0  0
  -47.6762   -1.5338   17.7089 C   0  0  0  0  0  0
  -47.2108   -0.5070   19.8724 C   0  0  0  0  0  0
  -49.0588   -1.5185   18.0213 C   0  0  0  0  0  0
  -45.3540   -1.1687   18.3900 C   0  0  0  0  0  0
  -47.2215   -2.0307   16.4574 C   0  0  0  0  0  0
  -48.6013   -0.3798   20.1271 C   0  0  0  0  0  0
  -49.5110   -1.0601   19.2859 C   0  0  0  0  0  0
  -44.8869   -1.6837   17.1523 C   0  0  0  0  0  0
  -45.8342   -2.1049   16.1658 C   0  0  0  0  0  0
  -46.2555   -0.0893   20.8142 C   0  0  0  0  0  0
  -49.9626   -1.9524   17.0368 C   0  0  0  0  0  0
  -44.4268   -0.7312   19.3728 C   0  0  0  0  0  0
  -48.1737   -2.4600   15.4950 C   0  0  0  0  0  0
  -44.8863   -0.2077   20.5799 C   0  0  0  0  0  0
  -49.5349   -2.4048   15.7893 C   0  0  0  0  0  0
  -48.9885    0.5749   21.2109 C   0  0  0  0  0  0
  -50.9033   -1.4489   19.6692 C   0  0  0  0  0  0
  -43.4835   -1.7460   16.9645 C   0  0  0  0  0  0
  -45.4655   -2.6054   14.8922 C   0  0  0  0  0  0
  -46.7040    0.4744   22.1031 C   0  0  0  0  0  0
  -51.4124   -1.9126   17.3132 C   0  0  0  0  0  0
  -43.0521   -0.8176   19.1382 C   0  0  0  0  0  0
  -47.7565   -2.9425   14.2519 C   0  0  0  0  0  0
  -48.1061    0.9243   22.1608 C   0  0  0  0  0  0
  -51.7989   -1.7936   18.7302 C   0  0  0  0  0  0
  -42.5816   -1.3242   17.9387 C   0  0  0  0  0  0
  -46.4072   -3.0142   13.9508 C   0  0  0  0  0  0
  -50.2933    1.3221   21.1694 C   0  0  0  0  0  0
  -51.2921   -1.6578   21.1071 C   0  0  0  0  0  0
  -44.3700    0.0842   22.4206 H   0  0  0  0  0  0
  -50.0359   -3.1827   14.0881 H   0  0  0  0  0  0
  -43.3222   -3.1216   15.6675 H   0  0  0  0  0  0
  -43.8512   -1.7087   14.2567 H   0  0  0  0  0  0
  -42.5177   -0.0194   20.8114 H   0  0  0  0  0  0
  -48.1760   -4.0226   12.7078 H   0  0  0  0  0  0
  1 23  1  0  0  0
  1 39  1  0  0  0
  2 24  1  0  0  0
  2 40  1  0  0  0
  3 27  1  0  0  0
  3 41  1  0  0  0
  4 28  1  0  0  0
  4 42  1  0  0  0
  5 31  1  0  0  0
  5 43  1  0  0  0
  6 32  1  0  0  0
  6 44  1  0  0  0
  7 29  2  0  0  0
  8 30  2  0  0  0
  9 10  1  0  0  0
  9 11  2  0  0  0
  9 13  1  0  0  0
 10 12  2  0  0  0
 10 14  1  0  0  0
 11 15  1  0  0  0
 11 19  1  0  0  0
 12 16  1  0  0  0
 12 20  1  0  0  0
 13 17  2  0  0  0
 13 21  1  0  0  0
 14 18  2  0  0  0
 14 22  1  0  0  0
 15 16  2  0  0  0
 15 25  1  0  0  0
 16 26  1  0  0  0
 17 18  1  0  0  0
 17 27  1  0  0  0
 18 28  1  0  0  0
 19 23  2  0  0  0
 19 29  1  0  0  0
 20 24  2  0  0  0
 20 30  1  0  0  0
 21 23  1  0  0  0
 21 31  2  0  0  0
 22 24  1  0  0  0
 22 32  2  0  0  0
 25 33  2  0  0  0
 25 37  1  0  0  0
 26 34  2  0  0  0
 26 38  1  0  0  0
 27 35  2  0  0  0
 28 36  2  0  0  0
 29 33  1  0  0  0
 30 34  1  0  0  0
 31 35  1  0  0  0
 32 36  1  0  0  0
M  END
>  <CHROM.0>
-60.07540704,64.35645617,63.11696958

>  <CHROM.1>
34.10266160,-175.24403555,-29.59836438,-55.55177145,-5.24675696,-152.51686742
-47.17421037,-1.31906997,18.15440619,-0.89636752,-0.03834420,-1.98164234

>  <Name>
3663

>  <PUBCHEM_ATOM_DEF_STEREO_COUNT>
0

>  <PUBCHEM_ATOM_UDEF_STEREO_COUNT>
0

>  <PUBCHEM_BOND_DEF_STEREO_COUNT>
0

>  <PUBCHEM_BOND_UDEF_STEREO_COUNT>
0

>  <PUBCHEM_CACTVS_TAUTO_COUNT>
991

>  <PUBCHEM_COMPONENT_COUNT>
1

>  <PUBCHEM_COMPOUND_CID>
3663

>  <PUBCHEM_CONFORMER_DIVERSEORDER>
2
1

>  <PUBCHEM_CONFORMER_ID>
00000E4F00000002

>  <PUBCHEM_CONFORMER_RMSD>
0.6

>  <PUBCHEM_COORDINATE_TYPE>
2
5
10

>  <PUBCHEM_EFFECTIVE_ROTOR_COUNT>
0

>  <PUBCHEM_FEATURE_SELFOVERLAP>
81.639

>  <PUBCHEM_HEAVY_ATOM_COUNT>
38

>  <PUBCHEM_ISOTOPIC_ATOM_COUNT>
0

>  <PUBCHEM_MMFF94_ENERGY>
199.63

>  <PUBCHEM_MMFF94_PARTIAL_CHARGES>
38
1 -0.53
15 0.03
16 0.03
19 0.09
2 -0.53
20 0.09
23 0.08
24 0.08
25 -0.17
26 -0.17
27 0.08
28 0.08
29 0.47
3 -0.53
30 0.47
31 0.08
32 0.08
33 -0.14
34 -0.14
35 -0.15
36 -0.15
37 0.14
38 0.14
39 0.15
4 -0.53
40 0.15
41 0.15
42 0.15
49 0.45
5 -0.53
50 0.45
51 0.45
52 0.45
53 0.45
54 0.45
6 -0.53
7 -0.57
8 -0.57

>  <PUBCHEM_PHARMACOPHORE_FEATURES>
16
1 1 donor
1 2 donor
1 3 donor
1 4 donor
1 5 donor
1 6 donor
1 7 acceptor
1 8 acceptor
6 10 12 14 20 22 24 rings
6 11 15 19 25 29 33 rings
6 12 16 20 26 30 34 rings
6 13 17 21 27 31 35 rings
6 14 18 22 28 32 36 rings
6 9 10 11 12 15 16 rings
6 9 10 13 14 17 18 rings
6 9 11 13 19 21 23 rings

>  <PUBCHEM_SHAPE_FINGERPRINT>
10675989 125 18194398016588665341
10967382 1 18410573980861784590
1100329 8 18338797788838864377
11513181 2 18202562856523954462
12788726 201 17902227051119725024
13140716 1 18411980234758873768
1361 2 17834393415430342929
138480 1 17617941335497513320
14117953 113 17978504230875699972
14295345 954 17473281881373637993
14790565 3 18410860961981475845
15320467 1 18194682806863435847
19591789 44 18410575088958364515
19930381 70 18337670939776099219
20028762 73 18056188077985354245
20764821 26 18337674122272798285
20775438 99 17406502308368123415
23559900 14 18339635629615806240
350125 39 18267024955406711448
3882209 13 17978467014948150279
463206 1 17761496193550011432

>  <PUBCHEM_SHAPE_MULTIPOLES>
735.07
8
7.97
0.74
0.18
0.01
0
-0.01
-0.01
0.69
0.01
-0.58
0
0.95

>  <PUBCHEM_SHAPE_SELFOVERLAP>
1773.472

>  <PUBCHEM_SHAPE_VOLUME>
357.3

>  <RI>
-6.85141e+08

>  <Rbt.Current_Directory>
/root/miniconda3/envs/rdock/share/rxdock-2013.1.1_148c5bd1-0/data/ligands/prepped_ligands/Hypericin

>  <Rbt.Executable>
rbdock/0.1.0

>  <Rbt.Library>
librxdock.so/0.1.0

>  <Rbt.Parameter_File>
/root/miniconda3/envs/rdock/share/rxdock-2013.1.1_148c5bd1-0/data/scripts/dock.prm

>  <Rbt.Receptor>
def.prm

>  <SCORE>
-10.1416

>  <SCORE.INTER>
-9.7819

>  <SCORE.INTER.CONST>
1

>  <SCORE.INTER.POLAR>
-0.581134

>  <SCORE.INTER.REPUL>
0.00176555

>  <SCORE.INTER.ROT>
0

>  <SCORE.INTER.VDW>
-13.2149

>  <SCORE.INTER.norm>
-0.257418

>  <SCORE.INTRA>
-2.06386

>  <SCORE.INTRA.DIHEDRAL>
3.48491

>  <SCORE.INTRA.DIHEDRAL.0>
4.15609

>  <SCORE.INTRA.POLAR>
-0.625174

>  <SCORE.INTRA.POLAR.0>
-1.21242

>  <SCORE.INTRA.REPUL>
0

>  <SCORE.INTRA.REPUL.0>
0

>  <SCORE.INTRA.VDW>
-1.68072

>  <SCORE.INTRA.VDW.0>
2.93348

>  <SCORE.INTRA.norm>
-0.054312

>  <SCORE.RESTR>
2.68981

>  <SCORE.RESTR.CAVITY>
2.68981

>  <SCORE.RESTR.norm>
0.0707845

>  <SCORE.SYSTEM>
-0.985658

>  <SCORE.SYSTEM.CONST>
0

>  <SCORE.SYSTEM.DIHEDRAL>
0.114908

>  <SCORE.SYSTEM.POLAR>
-0.00776374

>  <SCORE.SYSTEM.VDW>
-1.01672

>  <SCORE.SYSTEM.norm>
-0.0259384

>  <SCORE.heavy>
38

>  <SCORE.norm>
-0.266884

$$$$
3663
  RxDock  02242113003D
librxdock.so/0.1.0
 44 51  0  0  0  0  0  0  0  0999 V2000
  -44.4517   -0.1437   18.3098 O   0  0  0  0  0  0
  -53.2579   -4.2291   17.2852 O   0  0  0  0  0  0
  -46.6088   -3.3428   13.3799 O   0  0  0  0  0  0
  -48.7254   -3.8344   12.9846 O   0  0  0  0  0  0
  -43.7890   -0.9080   16.0079 O   0  0  0  0  0  0
  -52.7202   -4.8808   14.9169 O   0  0  0  0  0  0
  -45.0955    0.3546   20.6725 O   0  0  0  0  0  0
  -53.8048   -3.3217   19.5481 O   0  0  0  0  0  0
  -48.2148   -1.8951   17.8364 C   0  0  0  0  0  0
  -49.4784   -2.4974   17.6942 C   0  0  0  0  0  0
  -47.9045   -1.1988   19.0315 C   0  0  0  0  0  0
  -50.3783   -2.4974   18.7895 C   0  0  0  0  0  0
  -47.2748   -1.9635   16.7727 C   0  0  0  0  0  0
  -49.8292   -3.1245   16.4680 C   0  0  0  0  0  0
  -48.8573   -1.0953   20.0782 C   0  0  0  0  0  0
  -50.0134   -1.9069   20.0272 C   0  0  0  0  0  0
  -47.6056   -2.6064   15.5510 C   0  0  0  0  0  0
  -48.9068   -3.1801   15.3905 C   0  0  0  0  0  0
  -46.6237   -0.6337   19.1523 C   0  0  0  0  0  0
  -51.6427   -3.0818   18.6046 C   0  0  0  0  0  0
  -45.9933   -1.3749   16.9416 C   0  0  0  0  0  0
  -51.1188   -3.7035   16.3300 C   0  0  0  0  0  0
  -45.6761   -0.7271   18.1340 C   0  0  0  0  0  0
  -52.0170   -3.6653   17.3950 C   0  0  0  0  0  0
  -48.6032   -0.0318   21.0984 C   0  0  0  0  0  0
  -50.8355   -2.2995   21.2132 C   0  0  0  0  0  0
  -46.6087   -2.6370   14.5441 C   0  0  0  0  0  0
  -49.3384   -3.8167   14.2000 C   0  0  0  0  0  0
  -46.2522    0.0643   20.3993 C   0  0  0  0  0  0
  -52.6199   -3.0645   19.7113 C   0  0  0  0  0  0
  -45.0449   -1.4363   15.9174 C   0  0  0  0  0  0
  -51.4955   -4.3166   15.1324 C   0  0  0  0  0  0
  -47.3679    0.4637   21.2753 C   0  0  0  0  0  0
  -52.0752   -2.7896   21.0526 C   0  0  0  0  0  0
  -45.3508   -2.0660   14.7229 C   0  0  0  0  0  0
  -50.6090   -4.3724   14.0706 C   0  0  0  0  0  0
  -49.7336    0.6542   21.8152 C   0  0  0  0  0  0
  -50.2456   -2.3474   22.5959 C   0  0  0  0  0  0
  -44.1589   -0.2385   19.2293 H   0  0  0  0  0  0
  -53.9208   -3.6947   17.7483 H   0  0  0  0  0  0
  -47.3614   -3.0341   12.8481 H   0  0  0  0  0  0
  -48.2826   -4.6797   12.8021 H   0  0  0  0  0  0
  -43.2171   -1.2860   15.3185 H   0  0  0  0  0  0
  -52.6250   -5.7094   14.4175 H   0  0  0  0  0  0
  1 23  1  0  0  0
  1 39  1  0  0  0
  2 24  1  0  0  0
  2 40  1  0  0  0
  3 27  1  0  0  0
  3 41  1  0  0  0
  4 28  1  0  0  0
  4 42  1  0  0  0
  5 31  1  0  0  0
  5 43  1  0  0  0
  6 32  1  0  0  0
  6 44  1  0  0  0
  7 29  2  0  0  0
  8 30  2  0  0  0
  9 10  1  0  0  0
  9 11  2  0  0  0
  9 13  1  0  0  0
 10 12  2  0  0  0
 10 14  1  0  0  0
 11 15  1  0  0  0
 11 19  1  0  0  0
 12 16  1  0  0  0
 12 20  1  0  0  0
 13 17  2  0  0  0
 13 21  1  0  0  0
 14 18  2  0  0  0
 14 22  1  0  0  0
 15 16  2  0  0  0
 15 25  1  0  0  0
 16 26  1  0  0  0
 17 18  1  0  0  0
 17 27  1  0  0  0
 18 28  1  0  0  0
 19 23  2  0  0  0
 19 29  1  0  0  0
 20 24  2  0  0  0
 20 30  1  0  0  0
 21 23  1  0  0  0
 21 31  2  0  0  0
 22 24  1  0  0  0
 22 32  2  0  0  0
 25 33  2  0  0  0
 25 37  1  0  0  0
 26 34  2  0  0  0
 26 38  1  0  0  0
 27 35  2  0  0  0
 28 36  2  0  0  0
 29 33  1  0  0  0
 30 34  1  0  0  0
 31 35  1  0  0  0
 32 36  1  0  0  0
M  END
>  <CHROM.0>
-175.91405657,176.70833391,57.93945326

>  <CHROM.1>
37.27875425,39.09973754,62.08642518,103.72490124,162.83857742,-139.85542572
-48.83492347,-2.21247094,17.71818260,0.26709921,0.37676928,1.17727211

>  <Name>
3663

>  <PUBCHEM_ATOM_DEF_STEREO_COUNT>
0

>  <PUBCHEM_ATOM_UDEF_STEREO_COUNT>
0

>  <PUBCHEM_BOND_DEF_STEREO_COUNT>
0

>  <PUBCHEM_BOND_UDEF_STEREO_COUNT>
0

>  <PUBCHEM_CACTVS_TAUTO_COUNT>
991

>  <PUBCHEM_COMPONENT_COUNT>
1

>  <PUBCHEM_COMPOUND_CID>
3663

>  <PUBCHEM_CONFORMER_DIVERSEORDER>
2
1

>  <PUBCHEM_CONFORMER_ID>
00000E4F00000002

>  <PUBCHEM_CONFORMER_RMSD>
0.6

>  <PUBCHEM_COORDINATE_TYPE>
2
5
10

>  <PUBCHEM_EFFECTIVE_ROTOR_COUNT>
0

>  <PUBCHEM_FEATURE_SELFOVERLAP>
81.639

>  <PUBCHEM_HEAVY_ATOM_COUNT>
38

>  <PUBCHEM_ISOTOPIC_ATOM_COUNT>
0

>  <PUBCHEM_MMFF94_ENERGY>
199.63

>  <PUBCHEM_MMFF94_PARTIAL_CHARGES>
38
1 -0.53
15 0.03
16 0.03
19 0.09
2 -0.53
20 0.09
23 0.08
24 0.08
25 -0.17
26 -0.17
27 0.08
28 0.08
29 0.47
3 -0.53
30 0.47
31 0.08
32 0.08
33 -0.14
34 -0.14
35 -0.15
36 -0.15
37 0.14
38 0.14
39 0.15
4 -0.53
40 0.15
41 0.15
42 0.15
49 0.45
5 -0.53
50 0.45
51 0.45
52 0.45
53 0.45
54 0.45
6 -0.53
7 -0.57
8 -0.57

>  <PUBCHEM_PHARMACOPHORE_FEATURES>
16
1 1 donor
1 2 donor
1 3 donor
1 4 donor
1 5 donor
1 6 donor
1 7 acceptor
1 8 acceptor
6 10 12 14 20 22 24 rings
6 11 15 19 25 29 33 rings
6 12 16 20 26 30 34 rings
6 13 17 21 27 31 35 rings
6 14 18 22 28 32 36 rings
6 9 10 11 12 15 16 rings
6 9 10 13 14 17 18 rings
6 9 11 13 19 21 23 rings

>  <PUBCHEM_SHAPE_FINGERPRINT>
10675989 125 18194398016588665341
10967382 1 18410573980861784590
1100329 8 18338797788838864377
11513181 2 18202562856523954462
12788726 201 17902227051119725024
13140716 1 18411980234758873768
1361 2 17834393415430342929
138480 1 17617941335497513320
14117953 113 17978504230875699972
14295345 954 17473281881373637993
14790565 3 18410860961981475845
15320467 1 18194682806863435847
19591789 44 18410575088958364515
19930381 70 18337670939776099219
20028762 73 18056188077985354245
20764821 26 18337674122272798285
20775438 99 17406502308368123415
23559900 14 18339635629615806240
350125 39 18267024955406711448
3882209 13 17978467014948150279
463206 1 17761496193550011432

>  <PUBCHEM_SHAPE_MULTIPOLES>
735.07
8
7.97
0.74
0.18
0.01
0
-0.01
-0.01
0.69
0.01
-0.58
0
0.95

>  <PUBCHEM_SHAPE_SELFOVERLAP>
1773.472

>  <PUBCHEM_SHAPE_VOLUME>
357.3

>  <RI>
-6.85141e+08

>  <Rbt.Current_Directory>
/root/miniconda3/envs/rdock/share/rxdock-2013.1.1_148c5bd1-0/data/ligands/prepped_ligands/Hypericin

>  <Rbt.Executable>
rbdock/0.1.0

>  <Rbt.Library>
librxdock.so/0.1.0

>  <Rbt.Parameter_File>
/root/miniconda3/envs/rdock/share/rxdock-2013.1.1_148c5bd1-0/data/scripts/dock.prm

>  <Rbt.Receptor>
def.prm

>  <SCORE>
0.717484

>  <SCORE.INTER>
-6.84409

>  <SCORE.INTER.CONST>
1

>  <SCORE.INTER.POLAR>
-1.4279

>  <SCORE.INTER.REPUL>
0.921

>  <SCORE.INTER.ROT>
0

>  <SCORE.INTER.VDW>
-11.9942

>  <SCORE.INTER.norm>
-0.180108

>  <SCORE.INTRA>
6.20688

>  <SCORE.INTRA.DIHEDRAL>
9.84482

>  <SCORE.INTRA.DIHEDRAL.0>
4.15609

>  <SCORE.INTRA.POLAR>
0.934043

>  <SCORE.INTRA.POLAR.0>
-1.21242

>  <SCORE.INTRA.REPUL>
0.0111588

>  <SCORE.INTRA.REPUL.0>
0

>  <SCORE.INTRA.VDW>
-1.94708

>  <SCORE.INTRA.VDW.0>
2.93348

>  <SCORE.INTRA.norm>
0.163339

>  <SCORE.RESTR>
2.37148

>  <SCORE.RESTR.CAVITY>
2.37148

>  <SCORE.RESTR.norm>
0.0624073

>  <SCORE.SYSTEM>
-1.01678

>  <SCORE.SYSTEM.CONST>
0

>  <SCORE.SYSTEM.DIHEDRAL>
0.103718

>  <SCORE.SYSTEM.VDW>
-1.06864

>  <SCORE.SYSTEM.norm>
-0.0267575

>  <SCORE.heavy>
38

>  <SCORE.norm>
0.0188812

$$$$
3663
  RxDock  02242113003D
librxdock.so/0.1.0
 44 51  0  0  0  0  0  0  0  0999 V2000
  -45.2229   -0.2328   20.4049 O   0  0  0  0  0  0
  -53.0481   -3.3985   15.5026 O   0  0  0  0  0  0
  -46.1584   -0.0628   14.2173 O   0  0  0  0  0  0
  -48.0970   -0.3392   13.1958 O   0  0  0  0  0  0
  -44.1424    0.5235   18.2642 O   0  0  0  0  0  0
  -52.0988   -2.5186   13.3469 O   0  0  0  0  0  0
  -46.2509   -1.2391   22.4483 O   0  0  0  0  0  0
  -54.0329   -4.0100   17.7162 O   0  0  0  0  0  0
  -48.5611   -1.5693   18.2784 C   0  0  0  0  0  0
  -49.6820   -2.0395   17.5698 C   0  0  0  0  0  0
  -48.5296   -1.6857   19.6907 C   0  0  0  0  0  0
  -50.7101   -2.7241   18.2653 C   0  0  0  0  0  0
  -47.4872   -0.9566   17.5777 C   0  0  0  0  0  0
  -49.7599   -1.8510   16.1633 C   0  0  0  0  0  0
  -49.6194   -2.2607   20.3951 C   0  0  0  0  0  0
  -50.6143   -2.9482   19.6634 C   0  0  0  0  0  0
  -47.5436   -0.7825   16.1699 C   0  0  0  0  0  0
  -48.7033   -1.2206   15.4552 C   0  0  0  0  0  0
  -47.3831   -1.2324   20.3648 C   0  0  0  0  0  0
  -51.8289   -3.1549   17.5324 C   0  0  0  0  0  0
  -46.3502   -0.5122   18.3036 C   0  0  0  0  0  0
  -50.9105   -2.3059   15.4659 C   0  0  0  0  0  0
  -46.3039   -0.6659   19.6880 C   0  0  0  0  0  0
  -51.9389   -2.9419   16.1590 C   0  0  0  0  0  0
  -49.6776   -1.9802   21.8628 C   0  0  0  0  0  0
  -51.5162   -4.0001   20.2262 C   0  0  0  0  0  0
  -46.4277   -0.1693   15.5475 C   0  0  0  0  0  0
  -48.8635   -1.0649   14.0556 C   0  0  0  0  0  0
  -47.2991   -1.3744   21.8321 C   0  0  0  0  0  0
  -52.9369   -3.8360   18.2312 C   0  0  0  0  0  0
  -45.2745    0.0837   17.6402 C   0  0  0  0  0  0
  -51.0198   -2.1241   14.0849 C   0  0  0  0  0  0
  -48.5720   -1.6183   22.5334 C   0  0  0  0  0  0
  -52.6290   -4.3673   19.5708 C   0  0  0  0  0  0
  -45.3123    0.2538   16.2667 C   0  0  0  0  0  0
  -50.0005   -1.5050   13.3820 C   0  0  0  0  0  0
  -50.9890   -1.8997   22.5950 C   0  0  0  0  0  0
  -51.1184   -4.8149   21.4262 C   0  0  0  0  0  0
  -45.0153   -0.8569   21.1173 H   0  0  0  0  0  0
  -53.4525   -4.1371   15.9829 H   0  0  0  0  0  0
  -45.2433   -0.3586   14.0771 H   0  0  0  0  0  0
  -48.4428    0.5575   13.0533 H   0  0  0  0  0  0
  -43.5013    0.8432   17.6068 H   0  0  0  0  0  0
  -52.8012   -2.8519   13.9306 H   0  0  0  0  0  0
  1 23  1  0  0  0
  1 39  1  0  0  0
  2 24  1  0  0  0
  2 40  1  0  0  0
  3 27  1  0  0  0
  3 41  1  0  0  0
  4 28  1  0  0  0
  4 42  1  0  0  0
  5 31  1  0  0  0
  5 43  1  0  0  0
  6 32  1  0  0  0
  6 44  1  0  0  0
  7 29  2  0  0  0
  8 30  2  0  0  0
  9 10  1  0  0  0
  9 11  2  0  0  0
  9 13  1  0  0  0
 10 12  2  0  0  0
 10 14  1  0  0  0
 11 15  1  0  0  0
 11 19  1  0  0  0
 12 16  1  0  0  0
 12 20  1  0  0  0
 13 17  2  0  0  0
 13 21  1  0  0  0
 14 18  2  0  0  0
 14 22  1  0  0  0
 15 16  2  0  0  0
 15 25  1  0  0  0
 16 26  1  0  0  0
 17 18  1  0  0  0
 17 27  1  0  0  0
 18 28  1  0  0  0
 19 23  2  0  0  0
 19 29  1  0  0  0
 20 24  2  0  0  0
 20 30  1  0  0  0
 21 23  1  0  0  0
 21 31  2  0  0  0
 22 24  1  0  0  0
 22 32  2  0  0  0
 25 33  2  0  0  0
 25 37  1  0  0  0
 26 34  2  0  0  0
 26 38  1  0  0  0
 27 35  2  0  0  0
 28 36  2  0  0  0
 29 33  1  0  0  0
 30 34  1  0  0  0
 31 35  1  0  0  0
 32 36  1  0  0  0
M  END
>  <CHROM.0>
-61.71263618,173.31212931,-155.50298729

>  <CHROM.1>
40.44015206,-24.41356316,-130.41614548,-93.85896062,175.90636835,5.83247744
-49.10110182,-1.78952914,17.88352598,0.43623009,0.46490047,1.71108536

>  <Name>
3663

>  <PUBCHEM_ATOM_DEF_STEREO_COUNT>
0

>  <PUBCHEM_ATOM_UDEF_STEREO_COUNT>
0

>  <PUBCHEM_BOND_DEF_STEREO_COUNT>
0

>  <PUBCHEM_BOND_UDEF_STEREO_COUNT>
0

>  <PUBCHEM_CACTVS_TAUTO_COUNT>
991

>  <PUBCHEM_COMPONENT_COUNT>
1

>  <PUBCHEM_COMPOUND_CID>
3663

>  <PUBCHEM_CONFORMER_DIVERSEORDER>
2
1

>  <PUBCHEM_CONFORMER_ID>
00000E4F00000002

>  <PUBCHEM_CONFORMER_RMSD>
0.6

>  <PUBCHEM_COORDINATE_TYPE>
2
5
10

>  <PUBCHEM_EFFECTIVE_ROTOR_COUNT>
0

>  <PUBCHEM_FEATURE_SELFOVERLAP>
81.639

>  <PUBCHEM_HEAVY_ATOM_COUNT>
38

>  <PUBCHEM_ISOTOPIC_ATOM_COUNT>
0

>  <PUBCHEM_MMFF94_ENERGY>
199.63

>  <PUBCHEM_MMFF94_PARTIAL_CHARGES>
38
1 -0.53
15 0.03
16 0.03
19 0.09
2 -0.53
20 0.09
23 0.08
24 0.08
25 -0.17
26 -0.17
27 0.08
28 0.08
29 0.47
3 -0.53
30 0.47
31 0.08
32 0.08
33 -0.14
34 -0.14
35 -0.15
36 -0.15
37 0.14
38 0.14
39 0.15
4 -0.53
40 0.15
41 0.15
42 0.15
49 0.45
5 -0.53
50 0.45
51 0.45
52 0.45
53 0.45
54 0.45
6 -0.53
7 -0.57
8 -0.57

>  <PUBCHEM_PHARMACOPHORE_FEATURES>
16
1 1 donor
1 2 donor
1 3 donor
1 4 donor
1 5 donor
1 6 donor
1 7 acceptor
1 8 acceptor
6 10 12 14 20 22 24 rings
6 11 15 19 25 29 33 rings
6 12 16 20 26 30 34 rings
6 13 17 21 27 31 35 rings
6 14 18 22 28 32 36 rings
6 9 10 11 12 15 16 rings
6 9 10 13 14 17 18 rings
6 9 11 13 19 21 23 rings

>  <PUBCHEM_SHAPE_FINGERPRINT>
10675989 125 18194398016588665341
10967382 1 18410573980861784590
1100329 8 18338797788838864377
11513181 2 18202562856523954462
12788726 201 17902227051119725024
13140716 1 18411980234758873768
1361 2 17834393415430342929
138480 1 17617941335497513320
14117953 113 17978504230875699972
14295345 954 17473281881373637993
14790565 3 18410860961981475845
15320467 1 18194682806863435847
19591789 44 18410575088958364515
19930381 70 18337670939776099219
20028762 73 18056188077985354245
20764821 26 18337674122272798285
20775438 99 17406502308368123415
23559900 14 18339635629615806240
350125 39 18267024955406711448
3882209 13 17978467014948150279
463206 1 17761496193550011432

>  <PUBCHEM_SHAPE_MULTIPOLES>
735.07
8
7.97
0.74
0.18
0.01
0
-0.01
-0.01
0.69
0.01
-0.58
0
0.95

>  <PUBCHEM_SHAPE_SELFOVERLAP>
1773.472

>  <PUBCHEM_SHAPE_VOLUME>
357.3

>  <RI>
-6.85141e+08

>  <Rbt.Current_Directory>
/root/miniconda3/envs/rdock/share/rxdock-2013.1.1_148c5bd1-0/data/ligands/prepped_ligands/Hypericin

>  <Rbt.Executable>
rbdock/0.1.0

>  <Rbt.Library>
librxdock.so/0.1.0

>  <Rbt.Parameter_File>
/root/miniconda3/envs/rdock/share/rxdock-2013.1.1_148c5bd1-0/data/scripts/dock.prm

>  <Rbt.Receptor>
def.prm

>  <SCORE>
-2.39236

>  <SCORE.INTER>
-8.69243

>  <SCORE.INTER.CONST>
1

>  <SCORE.INTER.POLAR>
-0.630785

>  <SCORE.INTER.REPUL>
0.677791

>  <SCORE.INTER.ROT>
0

>  <SCORE.INTER.VDW>
-15.3367

>  <SCORE.INTER.norm>
-0.228748

>  <SCORE.INTRA>
3.49029

>  <SCORE.INTRA.DIHEDRAL>
5.82327

>  <SCORE.INTRA.DIHEDRAL.0>
4.15609

>  <SCORE.INTRA.POLAR>
0.390134

>  <SCORE.INTRA.POLAR.0>
-1.21242

>  <SCORE.INTRA.REPUL>
0.00156707

>  <SCORE.INTRA.REPUL.0>
0

>  <SCORE.INTRA.VDW>
-0.755634

>  <SCORE.INTRA.VDW.0>
2.93348

>  <SCORE.INTRA.norm>
0.0918499

>  <SCORE.RESTR>
2.95169

>  <SCORE.RESTR.CAVITY>
2.95169

>  <SCORE.RESTR.norm>
0.0776761

>  <SCORE.SYSTEM>
-0.141917

>  <SCORE.SYSTEM.CONST>
0

>  <SCORE.SYSTEM.DIHEDRAL>
1.50066

>  <SCORE.SYSTEM.POLAR>
-0.0160315

>  <SCORE.SYSTEM.VDW>
-0.83774

>  <SCORE.SYSTEM.norm>
-0.00373466

>  <SCORE.heavy>
38

>  <SCORE.norm>
-0.0629569

$$$$
3663
  RxDock  02242113003D
librxdock.so/0.1.0
 44 51  0  0  0  0  0  0  0  0999 V2000
  -53.9167   -4.0317   17.9523 O   0  0  0  0  0  0
  -44.7655   -0.6488   18.2687 O   0  0  0  0  0  0
  -50.1127   -2.8975   13.1115 O   0  0  0  0  0  0
  -47.9280   -2.5951   13.2285 O   0  0  0  0  0  0
  -53.8163   -4.1737   15.4440 O   0  0  0  0  0  0
  -44.5403   -0.9204   15.7792 O   0  0  0  0  0  0
  -54.0215   -3.6202   20.4150 O   0  0  0  0  0  0
  -44.9819   -0.6538   20.7581 O   0  0  0  0  0  0
  -49.9956   -2.5942   18.0541 C   0  0  0  0  0  0
  -48.6820   -2.0920   18.0981 C   0  0  0  0  0  0
  -50.7060   -2.7962   19.2639 C   0  0  0  0  0  0
  -48.1307   -1.6887   19.3402 C   0  0  0  0  0  0
  -50.5861   -2.9219   16.8037 C   0  0  0  0  0  0
  -47.9323   -1.9658   16.8973 C   0  0  0  0  0  0
  -50.1026   -2.5074   20.5157 C   0  0  0  0  0  0
  -48.8928   -1.7767   20.5341 C   0  0  0  0  0  0
  -49.8549   -2.7794   15.5952 C   0  0  0  0  0  0
  -48.5036   -2.3107   15.6445 C   0  0  0  0  0  0
  -52.0257   -3.2717   19.1827 C   0  0  0  0  0  0
  -46.8064   -1.2190   19.3530 C   0  0  0  0  0  0
  -51.9226   -3.4015   16.7730 C   0  0  0  0  0  0
  -46.5978   -1.4839   16.9611 C   0  0  0  0  0  0
  -52.6333   -3.5595   17.9614 C   0  0  0  0  0  0
  -46.0440   -1.1273   18.1894 C   0  0  0  0  0  0
  -50.7528   -3.1156   21.7171 C   0  0  0  0  0  0
  -48.3957   -0.9749   21.6946 C   0  0  0  0  0  0
  -50.5199   -3.1210   14.3912 C   0  0  0  0  0  0
  -47.6858   -2.1627   14.4964 C   0  0  0  0  0  0
  -52.8091   -3.4560   20.4206 C   0  0  0  0  0  0
  -46.1866   -0.8280   20.6347 C   0  0  0  0  0  0
  -52.5330   -3.7211   15.5575 C   0  0  0  0  0  0
  -45.8330   -1.3601   15.7984 C   0  0  0  0  0  0
  -52.0369   -3.5058   21.6748 C   0  0  0  0  0  0
  -47.1127   -0.5837   21.7546 C   0  0  0  0  0  0
  -51.8347   -3.5806   14.3703 C   0  0  0  0  0  0
  -46.3744   -1.6992   14.5702 C   0  0  0  0  0  0
  -49.9551   -3.4906   22.9359 C   0  0  0  0  0  0
  -49.3393   -0.4154   22.7235 C   0  0  0  0  0  0
  -54.2142   -4.1903   17.0432 H   0  0  0  0  0  0
  -44.3293   -0.9647   19.0747 H   0  0  0  0  0  0
  -49.5002   -2.1431   13.1245 H   0  0  0  0  0  0
  -47.9104   -3.5637   13.1546 H   0  0  0  0  0  0
  -54.0450   -4.2981   14.5072 H   0  0  0  0  0  0
  -44.2544   -0.6790   16.6764 H   0  0  0  0  0  0
  1 23  1  0  0  0
  1 39  1  0  0  0
  2 24  1  0  0  0
  2 40  1  0  0  0
  3 27  1  0  0  0
  3 41  1  0  0  0
  4 28  1  0  0  0
  4 42  1  0  0  0
  5 31  1  0  0  0
  5 43  1  0  0  0
  6 32  1  0  0  0
  6 44  1  0  0  0
  7 29  2  0  0  0
  8 30  2  0  0  0
  9 10  1  0  0  0
  9 11  2  0  0  0
  9 13  1  0  0  0
 10 12  2  0  0  0
 10 14  1  0  0  0
 11 15  1  0  0  0
 11 19  1  0  0  0
 12 16  1  0  0  0
 12 20  1  0  0  0
 13 17  2  0  0  0
 13 21  1  0  0  0
 14 18  2  0  0  0
 14 22  1  0  0  0
 15 16  2  0  0  0
 15 25  1  0  0  0
 16 26  1  0  0  0
 17 18  1  0  0  0
 17 27  1  0  0  0
 18 28  1  0  0  0
 19 23  2  0  0  0
 19 29  1  0  0  0
 20 24  2  0  0  0
 20 30  1  0  0  0
 21 23  1  0  0  0
 21 31  2  0  0  0
 22 24  1  0  0  0
 22 32  2  0  0  0
 25 33  2  0  0  0
 25 37  1  0  0  0
 26 34  2  0  0  0
 26 38  1  0  0  0
 27 35  2  0  0  0
 28 36  2  0  0  0
 29 33  1  0  0  0
 30 34  1  0  0  0
 31 35  1  0  0  0
 32 36  1  0  0  0
M  END
>  <CHROM.0>
77.36550972,-176.44139965,-34.75715235

>  <CHROM.1>
-179.92824633,38.24340310,-24.38049979,-68.16806530,177.71151941,-2.20647855
-49.33384832,-2.34860503,18.02651982,3.03306696,-0.35871243,-1.67738256

>  <Name>
3663

>  <PUBCHEM_ATOM_DEF_STEREO_COUNT>
0

>  <PUBCHEM_ATOM_UDEF_STEREO_COUNT>
0

>  <PUBCHEM_BOND_DEF_STEREO_COUNT>
0

>  <PUBCHEM_BOND_UDEF_STEREO_COUNT>
0

>  <PUBCHEM_CACTVS_TAUTO_COUNT>
991

>  <PUBCHEM_COMPONENT_COUNT>
1

>  <PUBCHEM_COMPOUND_CID>
3663

>  <PUBCHEM_CONFORMER_DIVERSEORDER>
2
1

>  <PUBCHEM_CONFORMER_ID>
00000E4F00000002

>  <PUBCHEM_CONFORMER_RMSD>
0.6

>  <PUBCHEM_COORDINATE_TYPE>
2
5
10

>  <PUBCHEM_EFFECTIVE_ROTOR_COUNT>
0

>  <PUBCHEM_FEATURE_SELFOVERLAP>
81.639

>  <PUBCHEM_HEAVY_ATOM_COUNT>
38

>  <PUBCHEM_ISOTOPIC_ATOM_COUNT>
0

>  <PUBCHEM_MMFF94_ENERGY>
199.63

>  <PUBCHEM_MMFF94_PARTIAL_CHARGES>
38
1 -0.53
15 0.03
16 0.03
19 0.09
2 -0.53
20 0.09
23 0.08
24 0.08
25 -0.17
26 -0.17
27 0.08
28 0.08
29 0.47
3 -0.53
30 0.47
31 0.08
32 0.08
33 -0.14
34 -0.14
35 -0.15
36 -0.15
37 0.14
38 0.14
39 0.15
4 -0.53
40 0.15
41 0.15
42 0.15
49 0.45
5 -0.53
50 0.45
51 0.45
52 0.45
53 0.45
54 0.45
6 -0.53
7 -0.57
8 -0.57

>  <PUBCHEM_PHARMACOPHORE_FEATURES>
16
1 1 donor
1 2 donor
1 3 donor
1 4 donor
1 5 donor
1 6 donor
1 7 acceptor
1 8 acceptor
6 10 12 14 20 22 24 rings
6 11 15 19 25 29 33 rings
6 12 16 20 26 30 34 rings
6 13 17 21 27 31 35 rings
6 14 18 22 28 32 36 rings
6 9 10 11 12 15 16 rings
6 9 10 13 14 17 18 rings
6 9 11 13 19 21 23 rings

>  <PUBCHEM_SHAPE_FINGERPRINT>
10675989 125 18194398016588665341
10967382 1 18410573980861784590
1100329 8 18338797788838864377
11513181 2 18202562856523954462
12788726 201 17902227051119725024
13140716 1 18411980234758873768
1361 2 17834393415430342929
138480 1 17617941335497513320
14117953 113 17978504230875699972
14295345 954 17473281881373637993
14790565 3 18410860961981475845
15320467 1 18194682806863435847
19591789 44 18410575088958364515
19930381 70 18337670939776099219
20028762 73 18056188077985354245
20764821 26 18337674122272798285
20775438 99 17406502308368123415
23559900 14 18339635629615806240
350125 39 18267024955406711448
3882209 13 17978467014948150279
463206 1 17761496193550011432

>  <PUBCHEM_SHAPE_MULTIPOLES>
735.07
8
7.97
0.74
0.18
0.01
0
-0.01
-0.01
0.69
0.01
-0.58
0
0.95

>  <PUBCHEM_SHAPE_SELFOVERLAP>
1773.472

>  <PUBCHEM_SHAPE_VOLUME>
357.3

>  <RI>
-6.85141e+08

>  <Rbt.Current_Directory>
/root/miniconda3/envs/rdock/share/rxdock-2013.1.1_148c5bd1-0/data/ligands/prepped_ligands/Hypericin

>  <Rbt.Executable>
rbdock/0.1.0

>  <Rbt.Library>
librxdock.so/0.1.0

>  <Rbt.Parameter_File>
/root/miniconda3/envs/rdock/share/rxdock-2013.1.1_148c5bd1-0/data/scripts/dock.prm

>  <Rbt.Receptor>
def.prm

>  <SCORE>
-7.40768

>  <SCORE.INTER>
-9.21577

>  <SCORE.INTER.CONST>
1

>  <SCORE.INTER.POLAR>
-1.43497

>  <SCORE.INTER.REPUL>
0.938083

>  <SCORE.INTER.ROT>
0

>  <SCORE.INTER.VDW>
-14.4273

>  <SCORE.INTER.norm>
-0.24252

>  <SCORE.INTRA>
-2.26565

>  <SCORE.INTRA.DIHEDRAL>
3.10704

>  <SCORE.INTRA.DIHEDRAL.0>
4.15609

>  <SCORE.INTRA.POLAR>
-0.756859

>  <SCORE.INTRA.POLAR.0>
-1.21242

>  <SCORE.INTRA.REPUL>
0

>  <SCORE.INTRA.REPUL.0>
0

>  <SCORE.INTRA.VDW>
-1.24585

>  <SCORE.INTRA.VDW.0>
2.93348

>  <SCORE.INTRA.norm>
-0.0596224

>  <SCORE.RESTR>
3.72086

>  <SCORE.RESTR.CAVITY>
3.72086

>  <SCORE.RESTR.norm>
0.0979174

>  <SCORE.SYSTEM>
0.352876

>  <SCORE.SYSTEM.CONST>
0

>  <SCORE.SYSTEM.DIHEDRAL>
2.08663

>  <SCORE.SYSTEM.POLAR>
-0.0161417

>  <SCORE.SYSTEM.VDW>
-0.635557

>  <SCORE.SYSTEM.norm>
0.00928621

>  <SCORE.heavy>
38

>  <SCORE.norm>
-0.194939

$$$$
3663
  RxDock  02242113003D
librxdock.so/0.1.0
 44 51  0  0  0  0  0  0  0  0999 V2000
  -52.7926   -2.6050   19.3636 O   0  0  0  0  0  0
  -43.7348   -0.7768   16.2165 O   0  0  0  0  0  0
  -50.4921   -3.5808   13.6237 O   0  0  0  0  0  0
  -48.3524   -3.6076   13.0768 O   0  0  0  0  0  0
  -53.4359   -3.5010   17.1041 O   0  0  0  0  0  0
  -44.2626   -1.8091   13.9853 O   0  0  0  0  0  0
  -52.1481   -1.4681   21.4936 O   0  0  0  0  0  0
  -43.2178   -0.0064   18.5366 O   0  0  0  0  0  0
  -48.9222   -1.8430   17.9883 C   0  0  0  0  0  0
  -47.6213   -1.5653   17.5298 C   0  0  0  0  0  0
  -49.2622   -1.5605   19.3351 C   0  0  0  0  0  0
  -46.7062   -0.9035   18.3865 C   0  0  0  0  0  0
  -49.8719   -2.4300   17.1091 C   0  0  0  0  0  0
  -47.2463   -1.9227   16.2064 C   0  0  0  0  0  0
  -48.3024   -1.0118   20.2252 C   0  0  0  0  0  0
  -47.0923   -0.5102   19.6943 C   0  0  0  0  0  0
  -49.5157   -2.7713   15.7779 C   0  0  0  0  0  0
  -48.1796   -2.5297   15.3257 C   0  0  0  0  0  0
  -50.5779   -1.8232   19.7525 C   0  0  0  0  0  0
  -45.4064   -0.6674   17.9077 C   0  0  0  0  0  0
  -51.1892   -2.6787   17.5781 C   0  0  0  0  0  0
  -45.9211   -1.6616   15.7673 C   0  0  0  0  0  0
  -51.5327   -2.3612   18.8908 C   0  0  0  0  0  0
  -45.0109   -1.0482   16.6262 C   0  0  0  0  0  0
  -48.6154   -1.1238   21.6831 C   0  0  0  0  0  0
  -46.2253    0.5111   20.3590 C   0  0  0  0  0  0
  -50.5239   -3.3459   14.9642 C   0  0  0  0  0  0
  -47.7228   -2.8617   14.0257 C   0  0  0  0  0  0
  -50.9782   -1.5041   21.1375 C   0  0  0  0  0  0
  -44.4153   -0.0161   18.7871 C   0  0  0  0  0  0
  -52.1471   -3.2446   16.7328 C   0  0  0  0  0  0
  -45.5208   -2.0123   14.4754 C   0  0  0  0  0  0
  -49.8800   -1.3001   22.0987 C   0  0  0  0  0  0
  -44.9566    0.6939   19.9594 C   0  0  0  0  0  0
  -51.8163   -3.5763   15.4300 C   0  0  0  0  0  0
  -46.4180   -2.6112   13.6077 C   0  0  0  0  0  0
  -47.5255   -1.2406   22.7131 C   0  0  0  0  0  0
  -46.7881    1.4937   21.3490 C   0  0  0  0  0  0
  -53.3823   -2.8671   18.6400 H   0  0  0  0  0  0
  -43.1205   -0.8006   16.9660 H   0  0  0  0  0  0
  -49.8781   -2.9406   13.2267 H   0  0  0  0  0  0
  -47.7851   -4.3092   12.7163 H   0  0  0  0  0  0
  -53.9043   -3.9627   16.3880 H   0  0  0  0  0  0
  -43.7149   -1.3516   14.6456 H   0  0  0  0  0  0
  1 23  1  0  0  0
  1 39  1  0  0  0
  2 24  1  0  0  0
  2 40  1  0  0  0
  3 27  1  0  0  0
  3 41  1  0  0  0
  4 28  1  0  0  0
  4 42  1  0  0  0
  5 31  1  0  0  0
  5 43  1  0  0  0
  6 32  1  0  0  0
  6 44  1  0  0  0
  7 29  2  0  0  0
  8 30  2  0  0  0
  9 10  1  0  0  0
  9 11  2  0  0  0
  9 13  1  0  0  0
 10 12  2  0  0  0
 10 14  1  0  0  0
 11 15  1  0  0  0
 11 19  1  0  0  0
 12 16  1  0  0  0
 12 20  1  0  0  0
 13 17  2  0  0  0
 13 21  1  0  0  0
 14 18  2  0  0  0
 14 22  1  0  0  0
 15 16  2  0  0  0
 15 25  1  0  0  0
 16 26  1  0  0  0
 17 18  1  0  0  0
 17 27  1  0  0  0
 18 28  1  0  0  0
 19 23  2  0  0  0
 19 29  1  0  0  0
 20 24  2  0  0  0
 20 30  1  0  0  0
 21 23  1  0  0  0
 21 31  2  0  0  0
 22 24  1  0  0  0
 22 32  2  0  0  0
 25 33  2  0  0  0
 25 37  1  0  0  0
 26 34  2  0  0  0
 26 38  1  0  0  0
 27 35  2  0  0  0
 28 36  2  0  0  0
 29 33  1  0  0  0
 30 34  1  0  0  0
 31 35  1  0  0  0
 32 36  1  0  0  0
M  END
>  <CHROM.0>
179.50503997,-65.84100716,-179.10988720

>  <CHROM.1>
172.66447834,31.51060442,-26.55506137,-129.35090380,-175.20378952,-2.80610329
-48.28058133,-1.72414387,17.71341338,-2.92309553,-0.30464808,-1.90080895

>  <Name>
3663

>  <PUBCHEM_ATOM_DEF_STEREO_COUNT>
0

>  <PUBCHEM_ATOM_UDEF_STEREO_COUNT>
0

>  <PUBCHEM_BOND_DEF_STEREO_COUNT>
0

>  <PUBCHEM_BOND_UDEF_STEREO_COUNT>
0

>  <PUBCHEM_CACTVS_TAUTO_COUNT>
991

>  <PUBCHEM_COMPONENT_COUNT>
1

>  <PUBCHEM_COMPOUND_CID>
3663

>  <PUBCHEM_CONFORMER_DIVERSEORDER>
2
1

>  <PUBCHEM_CONFORMER_ID>
00000E4F00000002

>  <PUBCHEM_CONFORMER_RMSD>
0.6

>  <PUBCHEM_COORDINATE_TYPE>
2
5
10

>  <PUBCHEM_EFFECTIVE_ROTOR_COUNT>
0

>  <PUBCHEM_FEATURE_SELFOVERLAP>
81.639

>  <PUBCHEM_HEAVY_ATOM_COUNT>
38

>  <PUBCHEM_ISOTOPIC_ATOM_COUNT>
0

>  <PUBCHEM_MMFF94_ENERGY>
199.63

>  <PUBCHEM_MMFF94_PARTIAL_CHARGES>
38
1 -0.53
15 0.03
16 0.03
19 0.09
2 -0.53
20 0.09
23 0.08
24 0.08
25 -0.17
26 -0.17
27 0.08
28 0.08
29 0.47
3 -0.53
30 0.47
31 0.08
32 0.08
33 -0.14
34 -0.14
35 -0.15
36 -0.15
37 0.14
38 0.14
39 0.15
4 -0.53
40 0.15
41 0.15
42 0.15
49 0.45
5 -0.53
50 0.45
51 0.45
52 0.45
53 0.45
54 0.45
6 -0.53
7 -0.57
8 -0.57

>  <PUBCHEM_PHARMACOPHORE_FEATURES>
16
1 1 donor
1 2 donor
1 3 donor
1 4 donor
1 5 donor
1 6 donor
1 7 acceptor
1 8 acceptor
6 10 12 14 20 22 24 rings
6 11 15 19 25 29 33 rings
6 12 16 20 26 30 34 rings
6 13 17 21 27 31 35 rings
6 14 18 22 28 32 36 rings
6 9 10 11 12 15 16 rings
6 9 10 13 14 17 18 rings
6 9 11 13 19 21 23 rings

>  <PUBCHEM_SHAPE_FINGERPRINT>
10675989 125 18194398016588665341
10967382 1 18410573980861784590
1100329 8 18338797788838864377
11513181 2 18202562856523954462
12788726 201 17902227051119725024
13140716 1 18411980234758873768
1361 2 17834393415430342929
138480 1 17617941335497513320
14117953 113 17978504230875699972
14295345 954 17473281881373637993
14790565 3 18410860961981475845
15320467 1 18194682806863435847
19591789 44 18410575088958364515
19930381 70 18337670939776099219
20028762 73 18056188077985354245
20764821 26 18337674122272798285
20775438 99 17406502308368123415
23559900 14 18339635629615806240
350125 39 18267024955406711448
3882209 13 17978467014948150279
463206 1 17761496193550011432

>  <PUBCHEM_SHAPE_MULTIPOLES>
735.07
8
7.97
0.74
0.18
0.01
0
-0.01
-0.01
0.69
0.01
-0.58
0
0.95

>  <PUBCHEM_SHAPE_SELFOVERLAP>
1773.472

>  <PUBCHEM_SHAPE_VOLUME>
357.3

>  <RI>
-6.85141e+08

>  <Rbt.Current_Directory>
/root/miniconda3/envs/rdock/share/rxdock-2013.1.1_148c5bd1-0/data/ligands/prepped_ligands/Hypericin

>  <Rbt.Executable>
rbdock/0.1.0

>  <Rbt.Library>
librxdock.so/0.1.0

>  <Rbt.Parameter_File>
/root/miniconda3/envs/rdock/share/rxdock-2013.1.1_148c5bd1-0/data/scripts/dock.prm

>  <Rbt.Receptor>
def.prm

>  <SCORE>
2.39366

>  <SCORE.INTER>
3.29355

>  <SCORE.INTER.CONST>
1

>  <SCORE.INTER.POLAR>
-0.771899

>  <SCORE.INTER.REPUL>
0.0782205

>  <SCORE.INTER.ROT>
0

>  <SCORE.INTER.VDW>
0.126904

>  <SCORE.INTER.norm>
0.0866724

>  <SCORE.INTRA>
-2.49145

>  <SCORE.INTRA.DIHEDRAL>
1.02049

>  <SCORE.INTRA.DIHEDRAL.0>
4.15609

>  <SCORE.INTRA.POLAR>
-0.732763

>  <SCORE.INTRA.POLAR.0>
-1.21242

>  <SCORE.INTRA.REPUL>
0

>  <SCORE.INTRA.REPUL.0>
0

>  <SCORE.INTRA.VDW>
-0.5103

>  <SCORE.INTRA.VDW.0>
2.93348

>  <SCORE.INTRA.norm>
-0.0655645

>  <SCORE.RESTR>
2.6502

>  <SCORE.RESTR.CAVITY>
2.6502

>  <SCORE.RESTR.norm>
0.0697421

>  <SCORE.SYSTEM>
-1.05864

>  <SCORE.SYSTEM.CONST>
0

>  <SCORE.SYSTEM.DIHEDRAL>
0.169454

>  <SCORE.SYSTEM.POLAR>
-0.0041529

>  <SCORE.SYSTEM.VDW>
-1.12925

>  <SCORE.SYSTEM.norm>
-0.0278591

>  <SCORE.heavy>
38

>  <SCORE.norm>
0.0629909

$$$$
3663
  RxDock  02242113003D
librxdock.so/0.1.0
 44 51  0  0  0  0  0  0  0  0999 V2000
  -46.8971   -3.0797   13.4939 O   0  0  0  0  0  0
  -49.0367   -0.6529   22.7038 O   0  0  0  0  0  0
  -52.3851   -3.7597   16.4282 O   0  0  0  0  0  0
  -52.9677   -2.7825   18.3212 O   0  0  0  0  0  0
  -49.2527   -3.8746   13.1176 O   0  0  0  0  0  0
  -51.4464   -1.2763   22.3467 O   0  0  0  0  0  0
  -44.5233   -2.5084   14.0265 O   0  0  0  0  0  0
  -46.6904    0.1843   22.8969 O   0  0  0  0  0  0
  -47.8474   -2.0437   17.4278 C   0  0  0  0  0  0
  -48.1522   -1.7085   18.7599 C   0  0  0  0  0  0
  -46.5412   -1.8076   16.9305 C   0  0  0  0  0  0
  -47.1213   -1.2471   19.6164 C   0  0  0  0  0  0
  -48.8560   -2.5861   16.5863 C   0  0  0  0  0  0
  -49.4802   -1.8628   19.2421 C   0  0  0  0  0  0
  -45.5443   -1.2283   17.7582 C   0  0  0  0  0  0
  -45.7870   -1.1309   19.1472 C   0  0  0  0  0  0
  -50.1810   -2.7657   17.0633 C   0  0  0  0  0  0
  -50.5014   -2.3830   18.4045 C   0  0  0  0  0  0
  -46.2624   -2.1805   15.6048 C   0  0  0  0  0  0
  -47.4653   -0.8935   20.9321 C   0  0  0  0  0  0
  -48.5261   -2.9456   15.2525 C   0  0  0  0  0  0
  -49.7785   -1.4936   20.5807 C   0  0  0  0  0  0
  -47.2299   -2.7511   14.7790 C   0  0  0  0  0  0
  -48.7712   -1.0009   21.4083 C   0  0  0  0  0  0
  -44.3547   -0.6562   17.0556 C   0  0  0  0  0  0
  -44.7253   -1.0309   20.1958 C   0  0  0  0  0  0
  -51.1246   -3.3195   16.1624 C   0  0  0  0  0  0
  -51.8000   -2.4976   18.9605 C   0  0  0  0  0  0
  -44.9015   -1.9858   15.0661 C   0  0  0  0  0  0
  -46.4245   -0.3714   21.8399 C   0  0  0  0  0  0
  -49.4943   -3.4915   14.4058 C   0  0  0  0  0  0
  -51.0775   -1.6236   21.0786 C   0  0  0  0  0  0
  -44.0342   -1.0598   15.8157 C   0  0  0  0  0  0
  -45.0291   -0.6219   21.4381 C   0  0  0  0  0  0
  -50.7890   -3.6789   14.8591 C   0  0  0  0  0  0
  -52.0852   -2.1230   20.2714 C   0  0  0  0  0  0
  -43.5991    0.5160   17.6191 C   0  0  0  0  0  0
  -43.3384   -1.5637   19.9617 C   0  0  0  0  0  0
  -46.7715   -4.0374   13.4096 H   0  0  0  0  0  0
  -48.2592   -0.7958   23.2647 H   0  0  0  0  0  0
  -52.4300   -3.9707   17.3759 H   0  0  0  0  0  0
  -53.7152   -2.2622   18.6598 H   0  0  0  0  0  0
  -48.4870   -4.4729   13.0851 H   0  0  0  0  0  0
  -52.3594   -0.9425   22.3512 H   0  0  0  0  0  0
  1 23  1  0  0  0
  1 39  1  0  0  0
  2 24  1  0  0  0
  2 40  1  0  0  0
  3 27  1  0  0  0
  3 41  1  0  0  0
  4 28  1  0  0  0
  4 42  1  0  0  0
  5 31  1  0  0  0
  5 43  1  0  0  0
  6 32  1  0  0  0
  6 44  1  0  0  0
  7 29  2  0  0  0
  8 30  2  0  0  0
  9 10  1  0  0  0
  9 11  2  0  0  0
  9 13  1  0  0  0
 10 12  2  0  0  0
 10 14  1  0  0  0
 11 15  1  0  0  0
 11 19  1  0  0  0
 12 16  1  0  0  0
 12 20  1  0  0  0
 13 17  2  0  0  0
 13 21  1  0  0  0
 14 18  2  0  0  0
 14 22  1  0  0  0
 15 16  2  0  0  0
 15 25  1  0  0  0
 16 26  1  0  0  0
 17 18  1  0  0  0
 17 27  1  0  0  0
 18 28  1  0  0  0
 19 23  2  0  0  0
 19 29  1  0  0  0
 20 24  2  0  0  0
 20 30  1  0  0  0
 21 23  1  0  0  0
 21 31  2  0  0  0
 22 24  1  0  0  0
 22 32  2  0  0  0
 25 33  2  0  0  0
 25 37  1  0  0  0
 26 34  2  0  0  0
 26 38  1  0  0  0
 27 35  2  0  0  0
 28 36  2  0  0  0
 29 33  1  0  0  0
 30 34  1  0  0  0
 31 35  1  0  0  0
 32 36  1  0  0  0
M  END
>  <CHROM.0>
-165.50730518,-61.85157212,-176.14300695

>  <CHROM.1>
103.81814460,-28.97670070,-22.45301391,-140.61458901,52.23401050,146.61033504
-48.04684221,-1.89183471,18.09000464,1.32038339,-0.23410212,-1.87331387

>  <Name>
3663

>  <PUBCHEM_ATOM_DEF_STEREO_COUNT>
0

>  <PUBCHEM_ATOM_UDEF_STEREO_COUNT>
0

>  <PUBCHEM_BOND_DEF_STEREO_COUNT>
0

>  <PUBCHEM_BOND_UDEF_STEREO_COUNT>
0

>  <PUBCHEM_CACTVS_TAUTO_COUNT>
991

>  <PUBCHEM_COMPONENT_COUNT>
1

>  <PUBCHEM_COMPOUND_CID>
3663

>  <PUBCHEM_CONFORMER_DIVERSEORDER>
2
1

>  <PUBCHEM_CONFORMER_ID>
00000E4F00000002

>  <PUBCHEM_CONFORMER_RMSD>
0.6

>  <PUBCHEM_COORDINATE_TYPE>
2
5
10

>  <PUBCHEM_EFFECTIVE_ROTOR_COUNT>
0

>  <PUBCHEM_FEATURE_SELFOVERLAP>
81.639

>  <PUBCHEM_HEAVY_ATOM_COUNT>
38

>  <PUBCHEM_ISOTOPIC_ATOM_COUNT>
0

>  <PUBCHEM_MMFF94_ENERGY>
199.63

>  <PUBCHEM_MMFF94_PARTIAL_CHARGES>
38
1 -0.53
15 0.03
16 0.03
19 0.09
2 -0.53
20 0.09
23 0.08
24 0.08
25 -0.17
26 -0.17
27 0.08
28 0.08
29 0.47
3 -0.53
30 0.47
31 0.08
32 0.08
33 -0.14
34 -0.14
35 -0.15
36 -0.15
37 0.14
38 0.14
39 0.15
4 -0.53
40 0.15
41 0.15
42 0.15
49 0.45
5 -0.53
50 0.45
51 0.45
52 0.45
53 0.45
54 0.45
6 -0.53
7 -0.57
8 -0.57

>  <PUBCHEM_PHARMACOPHORE_FEATURES>
16
1 1 donor
1 2 donor
1 3 donor
1 4 donor
1 5 donor
1 6 donor
1 7 acceptor
1 8 acceptor
6 10 12 14 20 22 24 rings
6 11 15 19 25 29 33 rings
6 12 16 20 26 30 34 rings
6 13 17 21 27 31 35 rings
6 14 18 22 28 32 36 rings
6 9 10 11 12 15 16 rings
6 9 10 13 14 17 18 rings
6 9 11 13 19 21 23 rings

>  <PUBCHEM_SHAPE_FINGERPRINT>
10675989 125 18194398016588665341
10967382 1 18410573980861784590
1100329 8 18338797788838864377
11513181 2 18202562856523954462
12788726 201 17902227051119725024
13140716 1 18411980234758873768
1361 2 17834393415430342929
138480 1 17617941335497513320
14117953 113 17978504230875699972
14295345 954 17473281881373637993
14790565 3 18410860961981475845
15320467 1 18194682806863435847
19591789 44 18410575088958364515
19930381 70 18337670939776099219
20028762 73 18056188077985354245
20764821 26 18337674122272798285
20775438 99 17406502308368123415
23559900 14 18339635629615806240
350125 39 18267024955406711448
3882209 13 17978467014948150279
463206 1 17761496193550011432

>  <PUBCHEM_SHAPE_MULTIPOLES>
735.07
8
7.97
0.74
0.18
0.01
0
-0.01
-0.01
0.69
0.01
-0.58
0
0.95

>  <PUBCHEM_SHAPE_SELFOVERLAP>
1773.472

>  <PUBCHEM_SHAPE_VOLUME>
357.3

>  <RI>
-6.85141e+08

>  <Rbt.Current_Directory>
/root/miniconda3/envs/rdock/share/rxdock-2013.1.1_148c5bd1-0/data/ligands/prepped_ligands/Hypericin

>  <Rbt.Executable>
rbdock/0.1.0

>  <Rbt.Library>
librxdock.so/0.1.0

>  <Rbt.Parameter_File>
/root/miniconda3/envs/rdock/share/rxdock-2013.1.1_148c5bd1-0/data/scripts/dock.prm

>  <Rbt.Receptor>
def.prm

>  <SCORE>
-1.59584

>  <SCORE.INTER>
-10.8521

>  <SCORE.INTER.CONST>
1

>  <SCORE.INTER.POLAR>
-1.69117

>  <SCORE.INTER.REPUL>
0.685362

>  <SCORE.INTER.ROT>
0

>  <SCORE.INTER.VDW>
-13.9289

>  <SCORE.INTER.norm>
-0.285581

>  <SCORE.INTRA>
6.96161

>  <SCORE.INTRA.DIHEDRAL>
8.63284

>  <SCORE.INTRA.DIHEDRAL.0>
4.15609

>  <SCORE.INTRA.POLAR>
0.940489

>  <SCORE.INTRA.POLAR.0>
-1.21242

>  <SCORE.INTRA.REPUL>
0.00392807

>  <SCORE.INTRA.REPUL.0>
0

>  <SCORE.INTRA.VDW>
-0.572108

>  <SCORE.INTRA.VDW.0>
2.93348

>  <SCORE.INTRA.norm>
0.1832

>  <SCORE.RESTR>
3.04976

>  <SCORE.RESTR.CAVITY>
3.04976

>  <SCORE.RESTR.norm>
0.0802569

>  <SCORE.SYSTEM>
-0.755132

>  <SCORE.SYSTEM.CONST>
0

>  <SCORE.SYSTEM.DIHEDRAL>
0.534675

>  <SCORE.SYSTEM.POLAR>
-0.0102725

>  <SCORE.SYSTEM.VDW>
-0.987543

>  <SCORE.SYSTEM.norm>
-0.0198719

>  <SCORE.heavy>
38

>  <SCORE.norm>
-0.0419957

$$$$
3663
  RxDock  02242113003D
librxdock.so/0.1.0
 44 51  0  0  0  0  0  0  0  0999 V2000
  -53.1740   -4.2710   17.2045 O   0  0  0  0  0  0
  -44.4599   -0.0539   18.4573 O   0  0  0  0  0  0
  -48.5660   -3.7425   13.0000 O   0  0  0  0  0  0
  -46.4661   -3.2213   13.4435 O   0  0  0  0  0  0
  -52.5782   -4.8840   14.8399 O   0  0  0  0  0  0
  -43.7385   -0.7784   16.1601 O   0  0  0  0  0  0
  -53.7800   -3.4039   19.4685 O   0  0  0  0  0  0
  -45.1576    0.4010   20.8131 O   0  0  0  0  0  0
  -49.4330   -2.4823   17.7112 C   0  0  0  0  0  0
  -48.1828   -1.8610   17.8863 C   0  0  0  0  0  0
  -50.3538   -2.5125   18.7884 C   0  0  0  0  0  0
  -47.9075   -1.1763   19.0965 C   0  0  0  0  0  0
  -49.7491   -3.0985   16.4702 C   0  0  0  0  0  0
  -47.2210   -1.8995   16.8406 C   0  0  0  0  0  0
  -50.0231   -1.9328   20.0411 C   0  0  0  0  0  0
  -48.8820   -1.1029   20.1255 C   0  0  0  0  0  0
  -48.8049   -3.1242   15.4104 C   0  0  0  0  0  0
  -47.5170   -2.5312   15.6042 C   0  0  0  0  0  0
  -51.6042   -3.1154   18.5710 C   0  0  0  0  0  0
  -46.6389   -0.5918   19.2502 C   0  0  0  0  0  0
  -51.0256   -3.6972   16.2993 C   0  0  0  0  0  0
  -45.9531   -1.2923   17.0425 C   0  0  0  0  0  0
  -51.9449   -3.6886   17.3467 C   0  0  0  0  0  0
  -45.6702   -0.6556   18.2496 C   0  0  0  0  0  0
  -50.8611   -2.3558   21.2051 C   0  0  0  0  0  0
  -48.6658   -0.0498   21.1650 C   0  0  0  0  0  0
  -49.2023   -3.7520   14.2035 C   0  0  0  0  0  0
  -46.5002   -2.5319   14.6170 C   0  0  0  0  0  0
  -52.6029   -3.1297   19.6584 C   0  0  0  0  0  0
  -46.3036    0.0950   20.5135 C   0  0  0  0  0  0
  -51.3685   -4.3006   15.0866 C   0  0  0  0  0  0
  -44.9840   -1.3244   16.0367 C   0  0  0  0  0  0
  -52.0889   -2.8646   21.0138 C   0  0  0  0  0  0
  -47.4425    0.4634   21.3729 C   0  0  0  0  0  0
  -50.4606   -4.3273   14.0416 C   0  0  0  0  0  0
  -45.2558   -1.9428   14.8283 C   0  0  0  0  0  0
  -50.2973   -2.4129   22.5984 C   0  0  0  0  0  0
  -49.8213    0.6074   21.8687 C   0  0  0  0  0  0
  -53.5337   -4.5213   18.0694 H   0  0  0  0  0  0
  -44.4863    0.5088   19.2461 H   0  0  0  0  0  0
  -49.2346   -3.5775   12.3143 H   0  0  0  0  0  0
  -47.0862   -3.9692   13.4318 H   0  0  0  0  0  0
  -53.1415   -4.8321   15.6306 H   0  0  0  0  0  0
  -43.6308   -0.3834   17.0418 H   0  0  0  0  0  0
  1 23  1  0  0  0
  1 39  1  0  0  0
  2 24  1  0  0  0
  2 40  1  0  0  0
  3 27  1  0  0  0
  3 41  1  0  0  0
  4 28  1  0  0  0
  4 42  1  0  0  0
  5 31  1  0  0  0
  5 43  1  0  0  0
  6 32  1  0  0  0
  6 44  1  0  0  0
  7 29  2  0  0  0
  8 30  2  0  0  0
  9 10  1  0  0  0
  9 11  2  0  0  0
  9 13  1  0  0  0
 10 12  2  0  0  0
 10 14  1  0  0  0
 11 15  1  0  0  0
 11 19  1  0  0  0
 12 16  1  0  0  0
 12 20  1  0  0  0
 13 17  2  0  0  0
 13 21  1  0  0  0
 14 18  2  0  0  0
 14 22  1  0  0  0
 15 16  2  0  0  0
 15 25  1  0  0  0
 16 26  1  0  0  0
 17 18  1  0  0  0
 17 27  1  0  0  0
 18 28  1  0  0  0
 19 23  2  0  0  0
 19 29  1  0  0  0
 20 24  2  0  0  0
 20 30  1  0  0  0
 21 23  1  0  0  0
 21 31  2  0  0  0
 22 24  1  0  0  0
 22 32  2  0  0  0
 25 33  2  0  0  0
 25 37  1  0  0  0
 26 34  2  0  0  0
 26 38  1  0  0  0
 27 35  2  0  0  0
 28 36  2  0  0  0
 29 33  1  0  0  0
 30 34  1  0  0  0
 31 35  1  0  0  0
 32 36  1  0  0  0
M  END
>  <CHROM.0>
-59.58244147,178.62336166,56.50413783

>  <CHROM.1>
-22.33969041,-11.04971243,-135.16232516,-18.76975187,-1.29517053,0.74242273
-48.79902842,-2.18475752,17.75822737,2.83411083,-0.38619502,-1.95970455

>  <Name>
3663

>  <PUBCHEM_ATOM_DEF_STEREO_COUNT>
0

>  <PUBCHEM_ATOM_UDEF_STEREO_COUNT>
0

>  <PUBCHEM_BOND_DEF_STEREO_COUNT>
0

>  <PUBCHEM_BOND_UDEF_STEREO_COUNT>
0

>  <PUBCHEM_CACTVS_TAUTO_COUNT>
991

>  <PUBCHEM_COMPONENT_COUNT>
1

>  <PUBCHEM_COMPOUND_CID>
3663

>  <PUBCHEM_CONFORMER_DIVERSEORDER>
2
1

>  <PUBCHEM_CONFORMER_ID>
00000E4F00000002

>  <PUBCHEM_CONFORMER_RMSD>
0.6

>  <PUBCHEM_COORDINATE_TYPE>
2
5
10

>  <PUBCHEM_EFFECTIVE_ROTOR_COUNT>
0

>  <PUBCHEM_FEATURE_SELFOVERLAP>
81.639

>  <PUBCHEM_HEAVY_ATOM_COUNT>
38

>  <PUBCHEM_ISOTOPIC_ATOM_COUNT>
0

>  <PUBCHEM_MMFF94_ENERGY>
199.63

>  <PUBCHEM_MMFF94_PARTIAL_CHARGES>
38
1 -0.53
15 0.03
16 0.03
19 0.09
2 -0.53
20 0.09
23 0.08
24 0.08
25 -0.17
26 -0.17
27 0.08
28 0.08
29 0.47
3 -0.53
30 0.47
31 0.08
32 0.08
33 -0.14
34 -0.14
35 -0.15
36 -0.15
37 0.14
38 0.14
39 0.15
4 -0.53
40 0.15
41 0.15
42 0.15
49 0.45
5 -0.53
50 0.45
51 0.45
52 0.45
53 0.45
54 0.45
6 -0.53
7 -0.57
8 -0.57

>  <PUBCHEM_PHARMACOPHORE_FEATURES>
16
1 1 donor
1 2 donor
1 3 donor
1 4 donor
1 5 donor
1 6 donor
1 7 acceptor
1 8 acceptor
6 10 12 14 20 22 24 rings
6 11 15 19 25 29 33 rings
6 12 16 20 26 30 34 rings
6 13 17 21 27 31 35 rings
6 14 18 22 28 32 36 rings
6 9 10 11 12 15 16 rings
6 9 10 13 14 17 18 rings
6 9 11 13 19 21 23 rings

>  <PUBCHEM_SHAPE_FINGERPRINT>
10675989 125 18194398016588665341
10967382 1 18410573980861784590
1100329 8 18338797788838864377
11513181 2 18202562856523954462
12788726 201 17902227051119725024
13140716 1 18411980234758873768
1361 2 17834393415430342929
138480 1 17617941335497513320
14117953 113 17978504230875699972
14295345 954 17473281881373637993
14790565 3 18410860961981475845
15320467 1 18194682806863435847
19591789 44 18410575088958364515
19930381 70 18337670939776099219
20028762 73 18056188077985354245
20764821 26 18337674122272798285
20775438 99 17406502308368123415
23559900 14 18339635629615806240
350125 39 18267024955406711448
3882209 13 17978467014948150279
463206 1 17761496193550011432

>  <PUBCHEM_SHAPE_MULTIPOLES>
735.07
8
7.97
0.74
0.18
0.01
0
-0.01
-0.01
0.69
0.01
-0.58
0
0.95

>  <PUBCHEM_SHAPE_SELFOVERLAP>
1773.472

>  <PUBCHEM_SHAPE_VOLUME>
357.3

>  <RI>
-6.85141e+08

>  <Rbt.Current_Directory>
/root/miniconda3/envs/rdock/share/rxdock-2013.1.1_148c5bd1-0/data/ligands/prepped_ligands/Hypericin

>  <Rbt.Executable>
rbdock/0.1.0

>  <Rbt.Library>
librxdock.so/0.1.0

>  <Rbt.Parameter_File>
/root/miniconda3/envs/rdock/share/rxdock-2013.1.1_148c5bd1-0/data/scripts/dock.prm

>  <Rbt.Receptor>
def.prm

>  <SCORE>
-10.5121

>  <SCORE.INTER>
-9.45734

>  <SCORE.INTER.CONST>
1

>  <SCORE.INTER.POLAR>
-0.658878

>  <SCORE.INTER.REPUL>
0.00815511

>  <SCORE.INTER.ROT>
0

>  <SCORE.INTER.VDW>
-12.6579

>  <SCORE.INTER.norm>
-0.248877

>  <SCORE.INTRA>
-2.40703

>  <SCORE.INTRA.DIHEDRAL>
-0.412293

>  <SCORE.INTRA.DIHEDRAL.0>
4.15609

>  <SCORE.INTRA.POLAR>
-0.78165

>  <SCORE.INTRA.POLAR.0>
-1.21242

>  <SCORE.INTRA.REPUL>
0

>  <SCORE.INTRA.REPUL.0>
0

>  <SCORE.INTRA.VDW>
0.456727

>  <SCORE.INTRA.VDW.0>
2.93348

>  <SCORE.INTRA.norm>
-0.0633429

>  <SCORE.RESTR>
2.42495

>  <SCORE.RESTR.CAVITY>
2.42495

>  <SCORE.RESTR.norm>
0.0638145

>  <SCORE.SYSTEM>
-1.07271

>  <SCORE.SYSTEM.CONST>
0

>  <SCORE.SYSTEM.DIHEDRAL>
0.0425742

>  <SCORE.SYSTEM.VDW>
-1.094

>  <SCORE.SYSTEM.norm>
-0.0282292

>  <SCORE.heavy>
38

>  <SCORE.norm>
-0.276635

$$$$
3663
  RxDock  02242113003D
librxdock.so/0.1.0
 44 51  0  0  0  0  0  0  0  0999 V2000
  -46.6690    0.6744   20.6136 O   0  0  0  0  0  0
  -50.9454   -5.6555   14.5362 O   0  0  0  0  0  0
  -50.9179   -3.6942   22.0462 O   0  0  0  0  0  0
  -51.5020   -5.3970   20.7666 O   0  0  0  0  0  0
  -47.9301   -0.2897   22.5635 O   0  0  0  0  0  0
  -52.1128   -6.7725   16.4629 O   0  0  0  0  0  0
  -45.6529    1.7367   18.5927 O   0  0  0  0  0  0
  -49.5528   -4.6584   12.7169 O   0  0  0  0  0  0
  -48.5099   -2.0537   18.0406 C   0  0  0  0  0  0
  -49.1381   -2.9561   17.1626 C   0  0  0  0  0  0
  -47.5587   -1.1339   17.5324 C   0  0  0  0  0  0
  -48.8966   -2.8562   15.7694 C   0  0  0  0  0  0
  -48.8106   -2.0922   19.4290 C   0  0  0  0  0  0
  -50.0293   -3.9373   17.6751 C   0  0  0  0  0  0
  -47.2276   -1.1218   16.1523 C   0  0  0  0  0  0
  -48.0382   -1.8511   15.2529 C   0  0  0  0  0  0
  -49.7161   -3.0535   19.9499 C   0  0  0  0  0  0
  -50.3208   -3.9999   19.0630 C   0  0  0  0  0  0
  -46.9714   -0.2276   18.4314 C   0  0  0  0  0  0
  -49.5170   -3.7911   14.9235 C   0  0  0  0  0  0
  -48.1896   -1.1567   20.2987 C   0  0  0  0  0  0
  -50.6340   -4.8592   16.7798 C   0  0  0  0  0  0
  -47.2860   -0.2258   19.7895 C   0  0  0  0  0  0
  -50.3622   -4.7850   15.4149 C   0  0  0  0  0  0
  -45.9588   -0.4210   15.7847 C   0  0  0  0  0  0
  -48.1579   -1.5698   13.7889 C   0  0  0  0  0  0
  -49.9667   -3.0189   21.3444 C   0  0  0  0  0  0
  -51.2138   -5.0132   19.4927 C   0  0  0  0  0  0
  -46.0062    0.7709   17.9300 C   0  0  0  0  0  0
  -49.2565   -3.7417   13.4710 C   0  0  0  0  0  0
  -48.4745   -1.1636   21.6666 C   0  0  0  0  0  0
  -51.5054   -5.8419   17.2565 C   0  0  0  0  0  0
  -45.4269    0.5022   16.6018 C   0  0  0  0  0  0
  -48.6808   -2.4859   12.9582 C   0  0  0  0  0  0
  -49.3607   -2.0907   22.1879 C   0  0  0  0  0  0
  -51.7938   -5.9195   18.6083 C   0  0  0  0  0  0
  -45.1365   -0.8552   14.6024 C   0  0  0  0  0  0
  -47.8868   -0.2008   13.2281 C   0  0  0  0  0  0
  -45.8278    0.9659   20.2294 H   0  0  0  0  0  0
  -50.4409   -5.6996   13.7097 H   0  0  0  0  0  0
  -51.4070   -3.0454   22.5795 H   0  0  0  0  0  0
  -52.4500   -5.5614   20.9016 H   0  0  0  0  0  0
  -47.2695    0.2721   22.1239 H   0  0  0  0  0  0
  -51.7363   -6.7469   15.5670 H   0  0  0  0  0  0
  1 23  1  0  0  0
  1 39  1  0  0  0
  2 24  1  0  0  0
  2 40  1  0  0  0
  3 27  1  0  0  0
  3 41  1  0  0  0
  4 28  1  0  0  0
  4 42  1  0  0  0
  5 31  1  0  0  0
  5 43  1  0  0  0
  6 32  1  0  0  0
  6 44  1  0  0  0
  7 29  2  0  0  0
  8 30  2  0  0  0
  9 10  1  0  0  0
  9 11  2  0  0  0
  9 13  1  0  0  0
 10 12  2  0  0  0
 10 14  1  0  0  0
 11 15  1  0  0  0
 11 19  1  0  0  0
 12 16  1  0  0  0
 12 20  1  0  0  0
 13 17  2  0  0  0
 13 21  1  0  0  0
 14 18  2  0  0  0
 14 22  1  0  0  0
 15 16  2  0  0  0
 15 25  1  0  0  0
 16 26  1  0  0  0
 17 18  1  0  0  0
 17 27  1  0  0  0
 18 28  1  0  0  0
 19 23  2  0  0  0
 19 29  1  0  0  0
 20 24  2  0  0  0
 20 30  1  0  0  0
 21 23  1  0  0  0
 21 31  2  0  0  0
 22 24  1  0  0  0
 22 32  2  0  0  0
 25 33  2  0  0  0
 25 37  1  0  0  0
 26 34  2  0  0  0
 26 38  1  0  0  0
 27 35  2  0  0  0
 28 36  2  0  0  0
 29 33  1  0  0  0
 30 34  1  0  0  0
 31 35  1  0  0  0
 32 36  1  0  0  0
M  END
>  <CHROM.0>
-55.92493661,-178.42934326,60.44098358

>  <CHROM.1>
-23.27782084,22.29669366,-127.67471272,138.13501645,-4.93017893,9.72093127
-48.84571929,-2.52296007,17.63606790,-0.82829283,-0.85135750,-1.76529722

>  <Name>
3663

>  <PUBCHEM_ATOM_DEF_STEREO_COUNT>
0

>  <PUBCHEM_ATOM_UDEF_STEREO_COUNT>
0

>  <PUBCHEM_BOND_DEF_STEREO_COUNT>
0

>  <PUBCHEM_BOND_UDEF_STEREO_COUNT>
0

>  <PUBCHEM_CACTVS_TAUTO_COUNT>
991

>  <PUBCHEM_COMPONENT_COUNT>
1

>  <PUBCHEM_COMPOUND_CID>
3663

>  <PUBCHEM_CONFORMER_DIVERSEORDER>
2
1

>  <PUBCHEM_CONFORMER_ID>
00000E4F00000002

>  <PUBCHEM_CONFORMER_RMSD>
0.6

>  <PUBCHEM_COORDINATE_TYPE>
2
5
10

>  <PUBCHEM_EFFECTIVE_ROTOR_COUNT>
0

>  <PUBCHEM_FEATURE_SELFOVERLAP>
81.639

>  <PUBCHEM_HEAVY_ATOM_COUNT>
38

>  <PUBCHEM_ISOTOPIC_ATOM_COUNT>
0

>  <PUBCHEM_MMFF94_ENERGY>
199.63

>  <PUBCHEM_MMFF94_PARTIAL_CHARGES>
38
1 -0.53
15 0.03
16 0.03
19 0.09
2 -0.53
20 0.09
23 0.08
24 0.08
25 -0.17
26 -0.17
27 0.08
28 0.08
29 0.47
3 -0.53
30 0.47
31 0.08
32 0.08
33 -0.14
34 -0.14
35 -0.15
36 -0.15
37 0.14
38 0.14
39 0.15
4 -0.53
40 0.15
41 0.15
42 0.15
49 0.45
5 -0.53
50 0.45
51 0.45
52 0.45
53 0.45
54 0.45
6 -0.53
7 -0.57
8 -0.57

>  <PUBCHEM_PHARMACOPHORE_FEATURES>
16
1 1 donor
1 2 donor
1 3 donor
1 4 donor
1 5 donor
1 6 donor
1 7 acceptor
1 8 acceptor
6 10 12 14 20 22 24 rings
6 11 15 19 25 29 33 rings
6 12 16 20 26 30 34 rings
6 13 17 21 27 31 35 rings
6 14 18 22 28 32 36 rings
6 9 10 11 12 15 16 rings
6 9 10 13 14 17 18 rings
6 9 11 13 19 21 23 rings

>  <PUBCHEM_SHAPE_FINGERPRINT>
10675989 125 18194398016588665341
10967382 1 18410573980861784590
1100329 8 18338797788838864377
11513181 2 18202562856523954462
12788726 201 17902227051119725024
13140716 1 18411980234758873768
1361 2 17834393415430342929
138480 1 17617941335497513320
14117953 113 17978504230875699972
14295345 954 17473281881373637993
14790565 3 18410860961981475845
15320467 1 18194682806863435847
19591789 44 18410575088958364515
19930381 70 18337670939776099219
20028762 73 18056188077985354245
20764821 26 18337674122272798285
20775438 99 17406502308368123415
23559900 14 18339635629615806240
350125 39 18267024955406711448
3882209 13 17978467014948150279
463206 1 17761496193550011432

>  <PUBCHEM_SHAPE_MULTIPOLES>
735.07
8
7.97
0.74
0.18
0.01
0
-0.01
-0.01
0.69
0.01
-0.58
0
0.95

>  <PUBCHEM_SHAPE_SELFOVERLAP>
1773.472

>  <PUBCHEM_SHAPE_VOLUME>
357.3

>  <RI>
-6.85141e+08

>  <Rbt.Current_Directory>
/root/miniconda3/envs/rdock/share/rxdock-2013.1.1_148c5bd1-0/data/ligands/prepped_ligands/Hypericin

>  <Rbt.Executable>
rbdock/0.1.0

>  <Rbt.Library>
librxdock.so/0.1.0

>  <Rbt.Parameter_File>
/root/miniconda3/envs/rdock/share/rxdock-2013.1.1_148c5bd1-0/data/scripts/dock.prm

>  <Rbt.Receptor>
def.prm

>  <SCORE>
-8.3293

>  <SCORE.INTER>
-9.34573

>  <SCORE.INTER.CONST>
1

>  <SCORE.INTER.POLAR>
-0.142165

>  <SCORE.INTER.REPUL>
0.0644441

>  <SCORE.INTER.ROT>
0

>  <SCORE.INTER.VDW>
-14.5846

>  <SCORE.INTER.norm>
-0.24594

>  <SCORE.INTRA>
-0.552875

>  <SCORE.INTRA.DIHEDRAL>
2.60893

>  <SCORE.INTRA.DIHEDRAL.0>
4.15609

>  <SCORE.INTRA.POLAR>
-0.416461

>  <SCORE.INTRA.POLAR.0>
-1.21242

>  <SCORE.INTRA.REPUL>
0

>  <SCORE.INTRA.REPUL.0>
0

>  <SCORE.INTRA.VDW>
-0.441373

>  <SCORE.INTRA.VDW.0>
2.93348

>  <SCORE.INTRA.norm>
-0.0145493

>  <SCORE.RESTR>
2.61075

>  <SCORE.RESTR.CAVITY>
2.61075

>  <SCORE.RESTR.norm>
0.068704

>  <SCORE.SYSTEM>
-1.04144

>  <SCORE.SYSTEM.CONST>
0

>  <SCORE.SYSTEM.DIHEDRAL>
0.0503158

>  <SCORE.SYSTEM.POLAR>
-0.00211613

>  <SCORE.SYSTEM.VDW>
-1.05941

>  <SCORE.SYSTEM.norm>
-0.0274064

>  <SCORE.heavy>
38

>  <SCORE.norm>
-0.219192

$$$$
3663
  RxDock  02242113003D
librxdock.so/0.1.0
 44 51  0  0  0  0  0  0  0  0999 V2000
  -44.0171    0.4068   21.5785 O   0  0  0  0  0  0
  -50.3800   -2.8026   14.9074 O   0  0  0  0  0  0
  -42.7241   -2.2874   16.0776 O   0  0  0  0  0  0
  -44.1440   -2.5625   14.4084 O   0  0  0  0  0  0
  -42.0868   -0.2761   20.1191 O   0  0  0  0  0  0
  -48.5019   -3.3583   13.3305 O   0  0  0  0  0  0
  -45.9794    0.8200   23.0696 O   0  0  0  0  0  0
  -52.1908   -1.9854   16.4229 O   0  0  0  0  0  0
  -46.7140   -0.9680   18.6995 C   0  0  0  0  0  0
  -47.6306   -1.4449   17.7445 C   0  0  0  0  0  0
  -47.1959   -0.3746   19.8932 C   0  0  0  0  0  0
  -49.0170   -1.4290   18.0395 C   0  0  0  0  0  0
  -45.3184   -1.0575   18.4470 C   0  0  0  0  0  0
  -47.1586   -1.9640   16.5085 C   0  0  0  0  0  0
  -48.5898   -0.2481   20.1283 C   0  0  0  0  0  0
  -49.4865   -0.9480   19.2893 C   0  0  0  0  0  0
  -44.8341   -1.5945   17.2253 C   0  0  0  0  0  0
  -45.7675   -2.0383   16.2356 C   0  0  0  0  0  0
  -46.2538    0.0649   20.8386 C   0  0  0  0  0  0
  -49.9069   -1.8854   17.0525 C   0  0  0  0  0  0
  -44.4050   -0.5975   19.4325 C   0  0  0  0  0  0
  -48.0972   -2.4156   15.5430 C   0  0  0  0  0  0
  -44.8814   -0.0527   20.6234 C   0  0  0  0  0  0
  -49.4621   -2.3601   15.8194 C   0  0  0  0  0  0
  -48.9940    0.7259   21.1886 C   0  0  0  0  0  0
  -50.8820   -1.3348   19.6629 C   0  0  0  0  0  0
  -43.4282   -1.6548   17.0560 C   0  0  0  0  0  0
  -45.3812   -2.5619   14.9765 C   0  0  0  0  0  0
  -46.7203    0.6516   22.1107 C   0  0  0  0  0  0
  -51.3602   -1.8459   17.3102 C   0  0  0  0  0  0
  -43.0272   -0.6830   19.2165 C   0  0  0  0  0  0
  -47.6628   -2.9203   14.3147 C   0  0  0  0  0  0
  -48.1247    1.0970   22.1424 C   0  0  0  0  0  0
  -51.7646   -1.7011   18.7198 C   0  0  0  0  0  0
  -42.5400   -1.2108   18.0329 C   0  0  0  0  0  0
  -46.3096   -2.9925   14.0316 C   0  0  0  0  0  0
  -50.3008    1.4670   21.1166 C   0  0  0  0  0  0
  -51.2878   -1.5174   21.0997 C   0  0  0  0  0  0
  -43.0988    0.2506   21.3093 H   0  0  0  0  0  0
  -49.9402   -3.1332   14.1094 H   0  0  0  0  0  0
  -42.9512   -3.2317   16.1145 H   0  0  0  0  0  0
  -44.1769   -2.4677   13.4420 H   0  0  0  0  0  0
  -41.4187    0.2767   19.6793 H   0  0  0  0  0  0
  -48.0430   -3.9948   12.7566 H   0  0  0  0  0  0
  1 23  1  0  0  0
  1 39  1  0  0  0
  2 24  1  0  0  0
  2 40  1  0  0  0
  3 27  1  0  0  0
  3 41  1  0  0  0
  4 28  1  0  0  0
  4 42  1  0  0  0
  5 31  1  0  0  0
  5 43  1  0  0  0
  6 32  1  0  0  0
  6 44  1  0  0  0
  7 29  2  0  0  0
  8 30  2  0  0  0
  9 10  1  0  0  0
  9 11  2  0  0  0
  9 13  1  0  0  0
 10 12  2  0  0  0
 10 14  1  0  0  0
 11 15  1  0  0  0
 11 19  1  0  0  0
 12 16  1  0  0  0
 12 20  1  0  0  0
 13 17  2  0  0  0
 13 21  1  0  0  0
 14 18  2  0  0  0
 14 22  1  0  0  0
 15 16  2  0  0  0
 15 25  1  0  0  0
 16 26  1  0  0  0
 17 18  1  0  0  0
 17 27  1  0  0  0
 18 28  1  0  0  0
 19 23  2  0  0  0
 19 29  1  0  0  0
 20 24  2  0  0  0
 20 30  1  0  0  0
 21 23  1  0  0  0
 21 31  2  0  0  0
 22 24  1  0  0  0
 22 32  2  0  0  0
 25 33  2  0  0  0
 25 37  1  0  0  0
 26 34  2  0  0  0
 26 38  1  0  0  0
 27 35  2  0  0  0
 28 36  2  0  0  0
 29 33  1  0  0  0
 30 34  1  0  0  0
 31 35  1  0  0  0
 32 36  1  0  0  0
M  END
>  <CHROM.0>
-176.82216442,-178.90125332,57.60943493

>  <CHROM.1>
179.07700921,-177.98596177,-59.26339921,-145.90352883,-131.95163660,-155.67001238
-47.13038199,-1.22116420,18.18595754,-0.87952635,-0.03701466,-2.00234408

>  <Name>
3663

>  <PUBCHEM_ATOM_DEF_STEREO_COUNT>
0

>  <PUBCHEM_ATOM_UDEF_STEREO_COUNT>
0

>  <PUBCHEM_BOND_DEF_STEREO_COUNT>
0

>  <PUBCHEM_BOND_UDEF_STEREO_COUNT>
0

>  <PUBCHEM_CACTVS_TAUTO_COUNT>
991

>  <PUBCHEM_COMPONENT_COUNT>
1

>  <PUBCHEM_COMPOUND_CID>
3663

>  <PUBCHEM_CONFORMER_DIVERSEORDER>
2
1

>  <PUBCHEM_CONFORMER_ID>
00000E4F00000002

>  <PUBCHEM_CONFORMER_RMSD>
0.6

>  <PUBCHEM_COORDINATE_TYPE>
2
5
10

>  <PUBCHEM_EFFECTIVE_ROTOR_COUNT>
0

>  <PUBCHEM_FEATURE_SELFOVERLAP>
81.639

>  <PUBCHEM_HEAVY_ATOM_COUNT>
38

>  <PUBCHEM_ISOTOPIC_ATOM_COUNT>
0

>  <PUBCHEM_MMFF94_ENERGY>
199.63

>  <PUBCHEM_MMFF94_PARTIAL_CHARGES>
38
1 -0.53
15 0.03
16 0.03
19 0.09
2 -0.53
20 0.09
23 0.08
24 0.08
25 -0.17
26 -0.17
27 0.08
28 0.08
29 0.47
3 -0.53
30 0.47
31 0.08
32 0.08
33 -0.14
34 -0.14
35 -0.15
36 -0.15
37 0.14
38 0.14
39 0.15
4 -0.53
40 0.15
41 0.15
42 0.15
49 0.45
5 -0.53
50 0.45
51 0.45
52 0.45
53 0.45
54 0.45
6 -0.53
7 -0.57
8 -0.57

>  <PUBCHEM_PHARMACOPHORE_FEATURES>
16
1 1 donor
1 2 donor
1 3 donor
1 4 donor
1 5 donor
1 6 donor
1 7 acceptor
1 8 acceptor
6 10 12 14 20 22 24 rings
6 11 15 19 25 29 33 rings
6 12 16 20 26 30 34 rings
6 13 17 21 27 31 35 rings
6 14 18 22 28 32 36 rings
6 9 10 11 12 15 16 rings
6 9 10 13 14 17 18 rings
6 9 11 13 19 21 23 rings

>  <PUBCHEM_SHAPE_FINGERPRINT>
10675989 125 18194398016588665341
10967382 1 18410573980861784590
1100329 8 18338797788838864377
11513181 2 18202562856523954462
12788726 201 17902227051119725024
13140716 1 18411980234758873768
1361 2 17834393415430342929
138480 1 17617941335497513320
14117953 113 17978504230875699972
14295345 954 17473281881373637993
14790565 3 18410860961981475845
15320467 1 18194682806863435847
19591789 44 18410575088958364515
19930381 70 18337670939776099219
20028762 73 18056188077985354245
20764821 26 18337674122272798285
20775438 99 17406502308368123415
23559900 14 18339635629615806240
350125 39 18267024955406711448
3882209 13 17978467014948150279
463206 1 17761496193550011432

>  <PUBCHEM_SHAPE_MULTIPOLES>
735.07
8
7.97
0.74
0.18
0.01
0
-0.01
-0.01
0.69
0.01
-0.58
0
0.95

>  <PUBCHEM_SHAPE_SELFOVERLAP>
1773.472

>  <PUBCHEM_SHAPE_VOLUME>
357.3

>  <RI>
-6.85141e+08

>  <Rbt.Current_Directory>
/root/miniconda3/envs/rdock/share/rxdock-2013.1.1_148c5bd1-0/data/ligands/prepped_ligands/Hypericin

>  <Rbt.Executable>
rbdock/0.1.0

>  <Rbt.Library>
librxdock.so/0.1.0

>  <Rbt.Parameter_File>
/root/miniconda3/envs/rdock/share/rxdock-2013.1.1_148c5bd1-0/data/scripts/dock.prm

>  <Rbt.Receptor>
def.prm

>  <SCORE>
-11.2948

>  <SCORE.INTER>
-12.6656

>  <SCORE.INTER.CONST>
1

>  <SCORE.INTER.POLAR>
-1.07567

>  <SCORE.INTER.REPUL>
6.57557e-05

>  <SCORE.INTER.ROT>
0

>  <SCORE.INTER.VDW>
-14.4087

>  <SCORE.INTER.norm>
-0.333305

>  <SCORE.INTRA>
-0.547234

>  <SCORE.INTRA.DIHEDRAL>
4.37707

>  <SCORE.INTRA.DIHEDRAL.0>
4.15609

>  <SCORE.INTRA.POLAR>
-0.634878

>  <SCORE.INTRA.POLAR.0>
-1.21242

>  <SCORE.INTRA.REPUL>
0

>  <SCORE.INTRA.REPUL.0>
0

>  <SCORE.INTRA.VDW>
-0.577183

>  <SCORE.INTRA.VDW.0>
2.93348

>  <SCORE.INTRA.norm>
-0.0144009

>  <SCORE.RESTR>
2.96265

>  <SCORE.RESTR.CAVITY>
2.96265

>  <SCORE.RESTR.norm>
0.0779645

>  <SCORE.SYSTEM>
-1.04461

>  <SCORE.SYSTEM.CONST>
0

>  <SCORE.SYSTEM.DIHEDRAL>
0.0447037

>  <SCORE.SYSTEM.VDW>
-1.06696

>  <SCORE.SYSTEM.norm>
-0.0274898

>  <SCORE.heavy>
38

>  <SCORE.norm>
-0.297231

$$$$
3663
  RxDock  02242113013D
librxdock.so/0.1.0
 44 51  0  0  0  0  0  0  0  0999 V2000
  -46.7047    0.6478   20.6029 O   0  0  0  0  0  0
  -50.9620   -5.6884   14.5187 O   0  0  0  0  0  0
  -50.9726   -3.7063   22.0232 O   0  0  0  0  0  0
  -51.5536   -5.4112   20.7450 O   0  0  0  0  0  0
  -47.9794   -0.3077   22.5482 O   0  0  0  0  0  0
  -52.1431   -6.7971   16.4417 O   0  0  0  0  0  0
  -45.6744    1.7020   18.5849 O   0  0  0  0  0  0
  -49.5565   -4.6998   12.7046 O   0  0  0  0  0  0
  -48.5376   -2.0830   18.0269 C   0  0  0  0  0  0
  -49.1630   -2.9861   17.1479 C   0  0  0  0  0  0
  -47.5812   -1.1668   17.5216 C   0  0  0  0  0  0
  -48.9133   -2.8908   15.7558 C   0  0  0  0  0  0
  -48.8464   -2.1168   19.4137 C   0  0  0  0  0  0
  -50.0596   -3.9638   17.6580 C   0  0  0  0  0  0
  -47.2422   -1.1595   16.1434 C   0  0  0  0  0  0
  -48.0494   -1.8892   15.2414 C   0  0  0  0  0  0
  -49.7572   -3.0744   19.9321 C   0  0  0  0  0  0
  -50.3592   -4.0218   19.0443 C   0  0  0  0  0  0
  -46.9968   -0.2596   18.4215 C   0  0  0  0  0  0
  -49.5312   -3.8264   14.9089 C   0  0  0  0  0  0
  -48.2280   -1.1804   20.2843 C   0  0  0  0  0  0
  -50.6615   -4.8867   16.7618 C   0  0  0  0  0  0
  -47.3192   -0.2532   19.7778 C   0  0  0  0  0  0
  -50.3816   -4.8169   15.3983 C   0  0  0  0  0  0
  -45.9696   -0.4628   15.7811 C   0  0  0  0  0  0
  -48.1601   -1.6117   13.7760 C   0  0  0  0  0  0
  -50.0157   -3.0353   21.3250 C   0  0  0  0  0  0
  -51.2572   -5.0316   19.4717 C   0  0  0  0  0  0
  -46.0263    0.7352   17.9228 C   0  0  0  0  0  0
  -49.2623   -3.7818   13.4578 C   0  0  0  0  0  0
  -48.5207   -1.1828   21.6505 C   0  0  0  0  0  0
  -51.5380   -5.8659   17.2361 C   0  0  0  0  0  0
  -45.4401    0.4613   16.5988 C   0  0  0  0  0  0
  -48.6805   -2.5288   12.9448 C   0  0  0  0  0  0
  -49.4123   -2.1062   22.1694 C   0  0  0  0  0  0
  -51.8344   -5.9390   18.5865 C   0  0  0  0  0  0
  -45.1417   -0.9024   14.6048 C   0  0  0  0  0  0
  -47.8824   -0.2450   13.2129 C   0  0  0  0  0  0
  -46.6065    1.5039   20.1583 H   0  0  0  0  0  0
  -51.3266   -6.4560   14.9849 H   0  0  0  0  0  0
  -51.5572   -3.0459   22.4314 H   0  0  0  0  0  0
  -51.8936   -4.6776   21.2837 H   0  0  0  0  0  0
  -48.4155   -0.4027   23.4120 H   0  0  0  0  0  0
  -53.0315   -7.0008   16.7799 H   0  0  0  0  0  0
  1 23  1  0  0  0
  1 39  1  0  0  0
  2 24  1  0  0  0
  2 40  1  0  0  0
  3 27  1  0  0  0
  3 41  1  0  0  0
  4 28  1  0  0  0
  4 42  1  0  0  0
  5 31  1  0  0  0
  5 43  1  0  0  0
  6 32  1  0  0  0
  6 44  1  0  0  0
  7 29  2  0  0  0
  8 30  2  0  0  0
  9 10  1  0  0  0
  9 11  2  0  0  0
  9 13  1  0  0  0
 10 12  2  0  0  0
 10 14  1  0  0  0
 11 15  1  0  0  0
 11 19  1  0  0  0
 12 16  1  0  0  0
 12 20  1  0  0  0
 13 17  2  0  0  0
 13 21  1  0  0  0
 14 18  2  0  0  0
 14 22  1  0  0  0
 15 16  2  0  0  0
 15 25  1  0  0  0
 16 26  1  0  0  0
 17 18  1  0  0  0
 17 27  1  0  0  0
 18 28  1  0  0  0
 19 23  2  0  0  0
 19 29  1  0  0  0
 20 24  2  0  0  0
 20 30  1  0  0  0
 21 23  1  0  0  0
 21 31  2  0  0  0
 22 24  1  0  0  0
 22 32  2  0  0  0
 25 33  2  0  0  0
 25 37  1  0  0  0
 26 34  2  0  0  0
 26 38  1  0  0  0
 27 35  2  0  0  0
 28 36  2  0  0  0
 29 33  1  0  0  0
 30 34  1  0  0  0
 31 35  1  0  0  0
 32 36  1  0  0  0
M  END
>  <CHROM.0>
-178.16340531,-64.42095356,-64.80173357

>  <CHROM.1>
39.03041850,164.76911343,-118.18976690,57.77828362,171.76460503,-145.99179667
-48.87923322,-2.55271197,17.62985569,-0.83091586,-0.84793778,-1.77512091

>  <Name>
3663

>  <PUBCHEM_ATOM_DEF_STEREO_COUNT>
0

>  <PUBCHEM_ATOM_UDEF_STEREO_COUNT>
0

>  <PUBCHEM_BOND_DEF_STEREO_COUNT>
0

>  <PUBCHEM_BOND_UDEF_STEREO_COUNT>
0

>  <PUBCHEM_CACTVS_TAUTO_COUNT>
991

>  <PUBCHEM_COMPONENT_COUNT>
1

>  <PUBCHEM_COMPOUND_CID>
3663

>  <PUBCHEM_CONFORMER_DIVERSEORDER>
2
1

>  <PUBCHEM_CONFORMER_ID>
00000E4F00000002

>  <PUBCHEM_CONFORMER_RMSD>
0.6

>  <PUBCHEM_COORDINATE_TYPE>
2
5
10

>  <PUBCHEM_EFFECTIVE_ROTOR_COUNT>
0

>  <PUBCHEM_FEATURE_SELFOVERLAP>
81.639

>  <PUBCHEM_HEAVY_ATOM_COUNT>
38

>  <PUBCHEM_ISOTOPIC_ATOM_COUNT>
0

>  <PUBCHEM_MMFF94_ENERGY>
199.63

>  <PUBCHEM_MMFF94_PARTIAL_CHARGES>
38
1 -0.53
15 0.03
16 0.03
19 0.09
2 -0.53
20 0.09
23 0.08
24 0.08
25 -0.17
26 -0.17
27 0.08
28 0.08
29 0.47
3 -0.53
30 0.47
31 0.08
32 0.08
33 -0.14
34 -0.14
35 -0.15
36 -0.15
37 0.14
38 0.14
39 0.15
4 -0.53
40 0.15
41 0.15
42 0.15
49 0.45
5 -0.53
50 0.45
51 0.45
52 0.45
53 0.45
54 0.45
6 -0.53
7 -0.57
8 -0.57

>  <PUBCHEM_PHARMACOPHORE_FEATURES>
16
1 1 donor
1 2 donor
1 3 donor
1 4 donor
1 5 donor
1 6 donor
1 7 acceptor
1 8 acceptor
6 10 12 14 20 22 24 rings
6 11 15 19 25 29 33 rings
6 12 16 20 26 30 34 rings
6 13 17 21 27 31 35 rings
6 14 18 22 28 32 36 rings
6 9 10 11 12 15 16 rings
6 9 10 13 14 17 18 rings
6 9 11 13 19 21 23 rings

>  <PUBCHEM_SHAPE_FINGERPRINT>
10675989 125 18194398016588665341
10967382 1 18410573980861784590
1100329 8 18338797788838864377
11513181 2 18202562856523954462
12788726 201 17902227051119725024
13140716 1 18411980234758873768
1361 2 17834393415430342929
138480 1 17617941335497513320
14117953 113 17978504230875699972
14295345 954 17473281881373637993
14790565 3 18410860961981475845
15320467 1 18194682806863435847
19591789 44 18410575088958364515
19930381 70 18337670939776099219
20028762 73 18056188077985354245
20764821 26 18337674122272798285
20775438 99 17406502308368123415
23559900 14 18339635629615806240
350125 39 18267024955406711448
3882209 13 17978467014948150279
463206 1 17761496193550011432

>  <PUBCHEM_SHAPE_MULTIPOLES>
735.07
8
7.97
0.74
0.18
0.01
0
-0.01
-0.01
0.69
0.01
-0.58
0
0.95

>  <PUBCHEM_SHAPE_SELFOVERLAP>
1773.472

>  <PUBCHEM_SHAPE_VOLUME>
357.3

>  <RI>
-6.85141e+08

>  <Rbt.Current_Directory>
/root/miniconda3/envs/rdock/share/rxdock-2013.1.1_148c5bd1-0/data/ligands/prepped_ligands/Hypericin

>  <Rbt.Executable>
rbdock/0.1.0

>  <Rbt.Library>
librxdock.so/0.1.0

>  <Rbt.Parameter_File>
/root/miniconda3/envs/rdock/share/rxdock-2013.1.1_148c5bd1-0/data/scripts/dock.prm

>  <Rbt.Receptor>
def.prm

>  <SCORE>
-3.30836

>  <SCORE.INTER>
-7.34924

>  <SCORE.INTER.CONST>
1

>  <SCORE.INTER.POLAR>
-0.75826

>  <SCORE.INTER.REPUL>
0.848528

>  <SCORE.INTER.ROT>
0

>  <SCORE.INTER.VDW>
-14.4138

>  <SCORE.INTER.norm>
-0.193401

>  <SCORE.INTRA>
2.45175

>  <SCORE.INTRA.DIHEDRAL>
6.12306

>  <SCORE.INTRA.DIHEDRAL.0>
4.15609

>  <SCORE.INTRA.POLAR>
0.146728

>  <SCORE.INTRA.POLAR.0>
-1.21242

>  <SCORE.INTRA.REPUL>
0.00713051

>  <SCORE.INTRA.REPUL.0>
0

>  <SCORE.INTRA.VDW>
-1.14431

>  <SCORE.INTRA.VDW.0>
2.93348

>  <SCORE.INTRA.norm>
0.0645197

>  <SCORE.RESTR>
2.62416

>  <SCORE.RESTR.CAVITY>
2.62416

>  <SCORE.RESTR.norm>
0.0690568

>  <SCORE.SYSTEM>
-1.03503

>  <SCORE.SYSTEM.CONST>
0

>  <SCORE.SYSTEM.DIHEDRAL>
0.163644

>  <SCORE.SYSTEM.VDW>
-1.11685

>  <SCORE.SYSTEM.norm>
-0.0272376

>  <SCORE.heavy>
38

>  <SCORE.norm>
-0.087062

$$$$
