3663
  RxDock  02242101223D
librxdock.so/0.1.0
 44 51  0  0  0  0  0  0  0  0999 V2000
  -53.2695   -4.3121   16.8589 O   0  0  0  0  0  0
  -44.5491   -0.4677   18.9719 O   0  0  0  0  0  0
  -48.4072   -3.5591   12.9882 O   0  0  0  0  0  0
  -46.3259   -3.1377   13.5953 O   0  0  0  0  0  0
  -52.5479   -4.7381   14.4883 O   0  0  0  0  0  0
  -43.7089   -1.0141   16.6658 O   0  0  0  0  0  0
  -53.9891   -3.6241   19.1511 O   0  0  0  0  0  0
  -45.3754   -0.1954   21.3143 O   0  0  0  0  0  0
  -49.5243   -2.6806   17.7332 C   0  0  0  0  0  0
  -48.2726   -2.1125   18.0331 C   0  0  0  0  0  0
  -50.5083   -2.7762   18.7490 C   0  0  0  0  0  0
  -48.0541   -1.5415   19.3120 C   0  0  0  0  0  0
  -49.7802   -3.1796   16.4274 C   0  0  0  0  0  0
  -47.2513   -2.0892   17.0451 C   0  0  0  0  0  0
  -50.2396   -2.3150   20.0641 C   0  0  0  0  0  0
  -49.0864   -1.5283   20.2857 C   0  0  0  0  0  0
  -48.7752   -3.1418   15.4254 C   0  0  0  0  0  0
  -47.4876   -2.6045   15.7436 C   0  0  0  0  0  0
  -51.7574   -3.3224   18.4086 C   0  0  0  0  0  0
  -46.7836   -1.0087   19.5885 C   0  0  0  0  0  0
  -51.0579   -3.7248   16.1320 C   0  0  0  0  0  0
  -45.9838   -1.5379   17.3716 C   0  0  0  0  0  0
  -52.0377   -3.7792   17.1216 C   0  0  0  0  0  0
  -45.7586   -1.0147   18.6436 C   0  0  0  0  0  0
  -51.1554   -2.8115   21.1370 C   0  0  0  0  0  0
  -48.9079   -0.5741   21.4234 C   0  0  0  0  0  0
  -49.1144   -3.6529   14.1477 C   0  0  0  0  0  0
  -46.4138   -2.5502   14.8202 C   0  0  0  0  0  0
  -52.8193   -3.4007   19.4314 C   0  0  0  0  0  0
  -46.5083   -0.4419   20.9238 C   0  0  0  0  0  0
  -51.3418   -4.2127   14.8538 C   0  0  0  0  0  0
  -44.9572   -1.5119   16.4241 C   0  0  0  0  0  0
  -52.3811   -3.2669   20.8320 C   0  0  0  0  0  0
  -47.6876   -0.1157   21.7450 C   0  0  0  0  0  0
  -50.3739   -4.1761   13.8645 C   0  0  0  0  0  0
  -45.1708   -2.0170   15.1530 C   0  0  0  0  0  0
  -50.6774   -3.0032   22.5502 C   0  0  0  0  0  0
  -50.0877    0.0534   22.1138 C   0  0  0  0  0  0
  -53.6216   -4.7578   17.6447 H   0  0  0  0  0  0
  -43.9296   -0.5315   18.2290 H   0  0  0  0  0  0
  -48.3970   -2.6239   12.7240 H   0  0  0  0  0  0
  -46.9235   -3.8981   13.5023 H   0  0  0  0  0  0
  -53.1516   -4.7507   15.2504 H   0  0  0  0  0  0
  -43.1750   -1.0374   15.8537 H   0  0  0  0  0  0
  1 23  1  0  0  0
  1 39  1  0  0  0
  2 24  1  0  0  0
  2 40  1  0  0  0
  3 27  1  0  0  0
  3 41  1  0  0  0
  4 28  1  0  0  0
  4 42  1  0  0  0
  5 31  1  0  0  0
  5 43  1  0  0  0
  6 32  1  0  0  0
  6 44  1  0  0  0
  7 29  2  0  0  0
  8 30  2  0  0  0
  9 10  1  0  0  0
  9 11  2  0  0  0
  9 13  1  0  0  0
 10 12  2  0  0  0
 10 14  1  0  0  0
 11 15  1  0  0  0
 11 19  1  0  0  0
 12 16  1  0  0  0
 12 20  1  0  0  0
 13 17  2  0  0  0
 13 21  1  0  0  0
 14 18  2  0  0  0
 14 22  1  0  0  0
 15 16  2  0  0  0
 15 25  1  0  0  0
 16 26  1  0  0  0
 17 18  1  0  0  0
 17 27  1  0  0  0
 18 28  1  0  0  0
 19 23  2  0  0  0
 19 29  1  0  0  0
 20 24  2  0  0  0
 20 30  1  0  0  0
 21 23  1  0  0  0
 21 31  2  0  0  0
 22 24  1  0  0  0
 22 32  2  0  0  0
 25 33  2  0  0  0
 25 37  1  0  0  0
 26 34  2  0  0  0
 26 38  1  0  0  0
 27 35  2  0  0  0
 28 36  2  0  0  0
 29 33  1  0  0  0
 30 34  1  0  0  0
 31 35  1  0  0  0
 32 36  1  0  0  0
M  END
>  <CHROM.0>
69.77567477,62.12467156,-172.82674071

>  <CHROM.1>
-31.89526422,-179.67608954,-67.03485736,-22.26361647,-2.18640855,-176.02500548
-48.88376433,-2.40716505,17.83652056,-2.84494872,0.34147074,1.25072545

>  <Name>
3663

>  <PUBCHEM_ATOM_DEF_STEREO_COUNT>
0

>  <PUBCHEM_ATOM_UDEF_STEREO_COUNT>
0

>  <PUBCHEM_BOND_DEF_STEREO_COUNT>
0

>  <PUBCHEM_BOND_UDEF_STEREO_COUNT>
0

>  <PUBCHEM_CACTVS_TAUTO_COUNT>
991

>  <PUBCHEM_COMPONENT_COUNT>
1

>  <PUBCHEM_COMPOUND_CID>
3663

>  <PUBCHEM_CONFORMER_DIVERSEORDER>
2
1

>  <PUBCHEM_CONFORMER_ID>
00000E4F00000002

>  <PUBCHEM_CONFORMER_RMSD>
0.6

>  <PUBCHEM_COORDINATE_TYPE>
2
5
10

>  <PUBCHEM_EFFECTIVE_ROTOR_COUNT>
0

>  <PUBCHEM_FEATURE_SELFOVERLAP>
81.639

>  <PUBCHEM_HEAVY_ATOM_COUNT>
38

>  <PUBCHEM_ISOTOPIC_ATOM_COUNT>
0

>  <PUBCHEM_MMFF94_ENERGY>
199.63

>  <PUBCHEM_MMFF94_PARTIAL_CHARGES>
38
1 -0.53
15 0.03
16 0.03
19 0.09
2 -0.53
20 0.09
23 0.08
24 0.08
25 -0.17
26 -0.17
27 0.08
28 0.08
29 0.47
3 -0.53
30 0.47
31 0.08
32 0.08
33 -0.14
34 -0.14
35 -0.15
36 -0.15
37 0.14
38 0.14
39 0.15
4 -0.53
40 0.15
41 0.15
42 0.15
49 0.45
5 -0.53
50 0.45
51 0.45
52 0.45
53 0.45
54 0.45
6 -0.53
7 -0.57
8 -0.57

>  <PUBCHEM_PHARMACOPHORE_FEATURES>
16
1 1 donor
1 2 donor
1 3 donor
1 4 donor
1 5 donor
1 6 donor
1 7 acceptor
1 8 acceptor
6 10 12 14 20 22 24 rings
6 11 15 19 25 29 33 rings
6 12 16 20 26 30 34 rings
6 13 17 21 27 31 35 rings
6 14 18 22 28 32 36 rings
6 9 10 11 12 15 16 rings
6 9 10 13 14 17 18 rings
6 9 11 13 19 21 23 rings

>  <PUBCHEM_SHAPE_FINGERPRINT>
10675989 125 18194398016588665341
10967382 1 18410573980861784590
1100329 8 18338797788838864377
11513181 2 18202562856523954462
12788726 201 17902227051119725024
13140716 1 18411980234758873768
1361 2 17834393415430342929
138480 1 17617941335497513320
14117953 113 17978504230875699972
14295345 954 17473281881373637993
14790565 3 18410860961981475845
15320467 1 18194682806863435847
19591789 44 18410575088958364515
19930381 70 18337670939776099219
20028762 73 18056188077985354245
20764821 26 18337674122272798285
20775438 99 17406502308368123415
23559900 14 18339635629615806240
350125 39 18267024955406711448
3882209 13 17978467014948150279
463206 1 17761496193550011432

>  <PUBCHEM_SHAPE_MULTIPOLES>
735.07
8
7.97
0.74
0.18
0.01
0
-0.01
-0.01
0.69
0.01
-0.58
0
0.95

>  <PUBCHEM_SHAPE_SELFOVERLAP>
1773.472

>  <PUBCHEM_SHAPE_VOLUME>
357.3

>  <RI>
-4.35244e+08

>  <Rbt.Current_Directory>
/root/miniconda3/envs/rdock/share/rxdock-2013.1.1_148c5bd1-0/data/ligands/prepped_ligands/Hypericin

>  <Rbt.Executable>
rbdock/0.1.0

>  <Rbt.Library>
librxdock.so/0.1.0

>  <Rbt.Parameter_File>
/root/miniconda3/envs/rdock/share/rxdock-2013.1.1_148c5bd1-0/data/scripts/dock.prm

>  <Rbt.Receptor>
def.prm

>  <SCORE>
-11.8992

>  <SCORE.INTER>
-11.1983

>  <SCORE.INTER.CONST>
1

>  <SCORE.INTER.POLAR>
-1.25963

>  <SCORE.INTER.REPUL>
7.36774e-05

>  <SCORE.INTER.ROT>
0

>  <SCORE.INTER.VDW>
-12.3159

>  <SCORE.INTER.norm>
-0.294692

>  <SCORE.INTRA>
-2.65114

>  <SCORE.INTRA.DIHEDRAL>
2.56978

>  <SCORE.INTRA.DIHEDRAL.0>
4.15609

>  <SCORE.INTRA.POLAR>
-0.784326

>  <SCORE.INTRA.POLAR.0>
-1.21242

>  <SCORE.INTRA.REPUL>
0

>  <SCORE.INTRA.REPUL.0>
0

>  <SCORE.INTRA.VDW>
-1.26932

>  <SCORE.INTRA.VDW.0>
2.93348

>  <SCORE.INTRA.norm>
-0.0697668

>  <SCORE.RESTR>
2.75151

>  <SCORE.RESTR.CAVITY>
2.75151

>  <SCORE.RESTR.norm>
0.0724081

>  <SCORE.SYSTEM>
-0.801246

>  <SCORE.SYSTEM.CONST>
0

>  <SCORE.SYSTEM.DIHEDRAL>
0.365975

>  <SCORE.SYSTEM.POLAR>
-0.0152343

>  <SCORE.SYSTEM.VDW>
-0.932436

>  <SCORE.SYSTEM.norm>
-0.0210854

>  <SCORE.heavy>
38

>  <SCORE.norm>
-0.313136

$$$$
3663
  RxDock  02242101223D
librxdock.so/0.1.0
 44 51  0  0  0  0  0  0  0  0999 V2000
  -44.0286   -0.7931   18.5700 O   0  0  0  0  0  0
  -53.3084   -3.5096   17.2303 O   0  0  0  0  0  0
  -46.5620   -3.2525   13.4005 O   0  0  0  0  0  0
  -48.7225   -3.4096   12.9696 O   0  0  0  0  0  0
  -43.4562   -1.4554   16.2130 O   0  0  0  0  0  0
  -52.8433   -4.0380   14.8164 O   0  0  0  0  0  0
  -44.6200   -0.4007   20.9661 O   0  0  0  0  0  0
  -53.7458   -2.7191   19.5600 O   0  0  0  0  0  0
  -47.9945   -1.9566   17.9616 C   0  0  0  0  0  0
  -49.3283   -2.3627   17.7729 C   0  0  0  0  0  0
  -47.6019   -1.4088   19.2087 C   0  0  0  0  0  0
  -50.2302   -2.3246   18.8658 C   0  0  0  0  0  0
  -47.0627   -2.0704   16.8946 C   0  0  0  0  0  0
  -49.7511   -2.8340   16.5005 C   0  0  0  0  0  0
  -48.5413   -1.2572   20.2617 C   0  0  0  0  0  0
  -49.7989   -1.8922   20.1468 C   0  0  0  0  0  0
  -47.4678   -2.5605   15.6254 C   0  0  0  0  0  0
  -48.8347   -2.9315   15.4208 C   0  0  0  0  0  0
  -46.2560   -1.0402   19.3731 C   0  0  0  0  0  0
  -51.5620   -2.7095   18.6360 C   0  0  0  0  0  0
  -45.7133   -1.6824   17.1088 C   0  0  0  0  0  0
  -51.1073   -3.2137   16.3179 C   0  0  0  0  0  0
  -45.3206   -1.1832   18.3493 C   0  0  0  0  0  0
  -52.0020   -3.1358   17.3837 C   0  0  0  0  0  0
  -48.1514   -0.3251   21.3641 C   0  0  0  0  0  0
  -50.6796   -2.2597   21.2982 C   0  0  0  0  0  0
  -46.4749   -2.6495   14.6179 C   0  0  0  0  0  0
  -49.3391   -3.4038   14.1833 C   0  0  0  0  0  0
  -45.8031   -0.5034   20.6719 C   0  0  0  0  0  0
  -52.5382   -2.6443   19.7418 C   0  0  0  0  0  0
  -44.7726   -1.7936   16.0817 C   0  0  0  0  0  0
  -51.5541   -3.6699   15.0751 C   0  0  0  0  0  0
  -46.8607   -0.0233   21.5789 C   0  0  0  0  0  0
  -51.9739   -2.5570   21.1002 C   0  0  0  0  0  0
  -45.1515   -2.2764   14.8406 C   0  0  0  0  0  0
  -50.6735   -3.7639   14.0110 C   0  0  0  0  0  0
  -49.1820    0.4526   22.1357 C   0  0  0  0  0  0
  -50.1159   -2.5006   22.6718 C   0  0  0  0  0  0
  -44.0007   -0.0377   19.1773 H   0  0  0  0  0  0
  -53.4796   -3.7964   16.3203 H   0  0  0  0  0  0
  -47.2595   -3.9272   13.4549 H   0  0  0  0  0  0
  -49.1940   -3.9497   12.3139 H   0  0  0  0  0  0
  -43.2841   -1.1248   17.1110 H   0  0  0  0  0  0
  -53.1911   -3.5345   14.0609 H   0  0  0  0  0  0
  1 23  1  0  0  0
  1 39  1  0  0  0
  2 24  1  0  0  0
  2 40  1  0  0  0
  3 27  1  0  0  0
  3 41  1  0  0  0
  4 28  1  0  0  0
  4 42  1  0  0  0
  5 31  1  0  0  0
  5 43  1  0  0  0
  6 32  1  0  0  0
  6 44  1  0  0  0
  7 29  2  0  0  0
  8 30  2  0  0  0
  9 10  1  0  0  0
  9 11  2  0  0  0
  9 13  1  0  0  0
 10 12  2  0  0  0
 10 14  1  0  0  0
 11 15  1  0  0  0
 11 19  1  0  0  0
 12 16  1  0  0  0
 12 20  1  0  0  0
 13 17  2  0  0  0
 13 21  1  0  0  0
 14 18  2  0  0  0
 14 22  1  0  0  0
 15 16  2  0  0  0
 15 25  1  0  0  0
 16 26  1  0  0  0
 17 18  1  0  0  0
 17 27  1  0  0  0
 18 28  1  0  0  0
 19 23  2  0  0  0
 19 29  1  0  0  0
 20 24  2  0  0  0
 20 30  1  0  0  0
 21 23  1  0  0  0
 21 31  2  0  0  0
 22 24  1  0  0  0
 22 32  2  0  0  0
 25 33  2  0  0  0
 25 37  1  0  0  0
 26 34  2  0  0  0
 26 38  1  0  0  0
 27 35  2  0  0  0
 28 36  2  0  0  0
 29 33  1  0  0  0
 30 34  1  0  0  0
 31 35  1  0  0  0
 32 36  1  0  0  0
M  END
>  <CHROM.0>
-44.99480332,61.86866805,-64.12908592

>  <CHROM.1>
-32.41629539,-179.10287763,-23.48328708,167.98940688,-0.53146248,124.73110383
-48.65422041,-2.17083256,17.81870324,-0.27685828,-0.24364582,-1.86877602

>  <Name>
3663

>  <PUBCHEM_ATOM_DEF_STEREO_COUNT>
0

>  <PUBCHEM_ATOM_UDEF_STEREO_COUNT>
0

>  <PUBCHEM_BOND_DEF_STEREO_COUNT>
0

>  <PUBCHEM_BOND_UDEF_STEREO_COUNT>
0

>  <PUBCHEM_CACTVS_TAUTO_COUNT>
991

>  <PUBCHEM_COMPONENT_COUNT>
1

>  <PUBCHEM_COMPOUND_CID>
3663

>  <PUBCHEM_CONFORMER_DIVERSEORDER>
2
1

>  <PUBCHEM_CONFORMER_ID>
00000E4F00000002

>  <PUBCHEM_CONFORMER_RMSD>
0.6

>  <PUBCHEM_COORDINATE_TYPE>
2
5
10

>  <PUBCHEM_EFFECTIVE_ROTOR_COUNT>
0

>  <PUBCHEM_FEATURE_SELFOVERLAP>
81.639

>  <PUBCHEM_HEAVY_ATOM_COUNT>
38

>  <PUBCHEM_ISOTOPIC_ATOM_COUNT>
0

>  <PUBCHEM_MMFF94_ENERGY>
199.63

>  <PUBCHEM_MMFF94_PARTIAL_CHARGES>
38
1 -0.53
15 0.03
16 0.03
19 0.09
2 -0.53
20 0.09
23 0.08
24 0.08
25 -0.17
26 -0.17
27 0.08
28 0.08
29 0.47
3 -0.53
30 0.47
31 0.08
32 0.08
33 -0.14
34 -0.14
35 -0.15
36 -0.15
37 0.14
38 0.14
39 0.15
4 -0.53
40 0.15
41 0.15
42 0.15
49 0.45
5 -0.53
50 0.45
51 0.45
52 0.45
53 0.45
54 0.45
6 -0.53
7 -0.57
8 -0.57

>  <PUBCHEM_PHARMACOPHORE_FEATURES>
16
1 1 donor
1 2 donor
1 3 donor
1 4 donor
1 5 donor
1 6 donor
1 7 acceptor
1 8 acceptor
6 10 12 14 20 22 24 rings
6 11 15 19 25 29 33 rings
6 12 16 20 26 30 34 rings
6 13 17 21 27 31 35 rings
6 14 18 22 28 32 36 rings
6 9 10 11 12 15 16 rings
6 9 10 13 14 17 18 rings
6 9 11 13 19 21 23 rings

>  <PUBCHEM_SHAPE_FINGERPRINT>
10675989 125 18194398016588665341
10967382 1 18410573980861784590
1100329 8 18338797788838864377
11513181 2 18202562856523954462
12788726 201 17902227051119725024
13140716 1 18411980234758873768
1361 2 17834393415430342929
138480 1 17617941335497513320
14117953 113 17978504230875699972
14295345 954 17473281881373637993
14790565 3 18410860961981475845
15320467 1 18194682806863435847
19591789 44 18410575088958364515
19930381 70 18337670939776099219
20028762 73 18056188077985354245
20764821 26 18337674122272798285
20775438 99 17406502308368123415
23559900 14 18339635629615806240
350125 39 18267024955406711448
3882209 13 17978467014948150279
463206 1 17761496193550011432

>  <PUBCHEM_SHAPE_MULTIPOLES>
735.07
8
7.97
0.74
0.18
0.01
0
-0.01
-0.01
0.69
0.01
-0.58
0
0.95

>  <PUBCHEM_SHAPE_SELFOVERLAP>
1773.472

>  <PUBCHEM_SHAPE_VOLUME>
357.3

>  <RI>
-4.35244e+08

>  <Rbt.Current_Directory>
/root/miniconda3/envs/rdock/share/rxdock-2013.1.1_148c5bd1-0/data/ligands/prepped_ligands/Hypericin

>  <Rbt.Executable>
rbdock/0.1.0

>  <Rbt.Library>
librxdock.so/0.1.0

>  <Rbt.Parameter_File>
/root/miniconda3/envs/rdock/share/rxdock-2013.1.1_148c5bd1-0/data/scripts/dock.prm

>  <Rbt.Receptor>
def.prm

>  <SCORE>
-11.0898

>  <SCORE.INTER>
-10.8657

>  <SCORE.INTER.CONST>
1

>  <SCORE.INTER.POLAR>
-1.13089

>  <SCORE.INTER.REPUL>
0.341619

>  <SCORE.INTER.ROT>
0

>  <SCORE.INTER.VDW>
-14.1288

>  <SCORE.INTER.norm>
-0.28594

>  <SCORE.INTRA>
-2.12816

>  <SCORE.INTRA.DIHEDRAL>
2.00589

>  <SCORE.INTRA.DIHEDRAL.0>
4.15609

>  <SCORE.INTRA.POLAR>
-0.817919

>  <SCORE.INTRA.POLAR.0>
-1.21242

>  <SCORE.INTRA.REPUL>
0

>  <SCORE.INTRA.REPUL.0>
0

>  <SCORE.INTRA.VDW>
-0.35018

>  <SCORE.INTRA.VDW.0>
2.93348

>  <SCORE.INTRA.norm>
-0.0560042

>  <SCORE.RESTR>
2.5638

>  <SCORE.RESTR.CAVITY>
2.5638

>  <SCORE.RESTR.norm>
0.0674683

>  <SCORE.SYSTEM>
-0.659721

>  <SCORE.SYSTEM.CONST>
0

>  <SCORE.SYSTEM.DIHEDRAL>
0.580205

>  <SCORE.SYSTEM.VDW>
-0.949823

>  <SCORE.SYSTEM.norm>
-0.0173611

>  <SCORE.heavy>
38

>  <SCORE.norm>
-0.291837

$$$$
3663
  RxDock  02242101223D
librxdock.so/0.1.0
 44 51  0  0  0  0  0  0  0  0999 V2000
  -51.9023   -2.0453   16.2013 O   0  0  0  0  0  0
  -43.1724   -0.9358   20.4260 O   0  0  0  0  0  0
  -46.2867   -2.2778   13.4441 O   0  0  0  0  0  0
  -44.3478   -2.4979   14.4785 O   0  0  0  0  0  0
  -50.8135   -2.4239   13.9668 O   0  0  0  0  0  0
  -42.0151   -1.4680   18.2580 O   0  0  0  0  0  0
  -52.9077   -1.4090   18.3989 O   0  0  0  0  0  0
  -44.3921   -0.6733   22.5910 O   0  0  0  0  0  0
  -48.1508   -1.5844   17.9805 C   0  0  0  0  0  0
  -46.8929   -1.4092   18.5861 C   0  0  0  0  0  0
  -49.3234   -1.5051   18.7729 C   0  0  0  0  0  0
  -46.8220   -1.0436   19.9538 C   0  0  0  0  0  0
  -48.2333   -1.8684   16.5905 C   0  0  0  0  0  0
  -45.7088   -1.5706   17.8168 C   0  0  0  0  0  0
  -49.2400   -1.2617   20.1687 C   0  0  0  0  0  0
  -48.0044   -0.8429   20.7125 C   0  0  0  0  0  0
  -47.0581   -2.0101   15.8069 C   0  0  0  0  0  0
  -45.7780   -1.8760   16.4322 C   0  0  0  0  0  0
  -50.5646   -1.6562   18.1317 C   0  0  0  0  0  0
  -45.5501   -0.9051   20.5348 C   0  0  0  0  0  0
  -49.5111   -2.0150   15.9880 C   0  0  0  0  0  0
  -44.4459   -1.4182   18.4486 C   0  0  0  0  0  0
  -50.6639   -1.8949   16.7618 C   0  0  0  0  0  0
  -44.3790   -1.0995   19.8037 C   0  0  0  0  0  0
  -50.4594   -1.5902   20.9694 C   0  0  0  0  0  0
  -47.8462   -0.0860   21.9926 C   0  0  0  0  0  0
  -47.2285   -2.2857   14.4271 C   0  0  0  0  0  0
  -44.5506   -2.0279   15.7400 C   0  0  0  0  0  0
  -51.8081   -1.5398   18.9191 C   0  0  0  0  0  0
  -45.4388   -0.5642   21.9670 C   0  0  0  0  0  0
  -49.6234   -2.2834   14.6214 C   0  0  0  0  0  0
  -43.2650   -1.5823   17.7201 C   0  0  0  0  0  0
  -51.6639   -1.6640   20.3804 C   0  0  0  0  0  0
  -46.6498   -0.0094   22.5972 C   0  0  0  0  0  0
  -48.4862   -2.4174   13.8430 C   0  0  0  0  0  0
  -43.3167   -1.8870   16.3707 C   0  0  0  0  0  0
  -50.3606   -2.0382   22.4018 C   0  0  0  0  0  0
  -48.9551    0.7700   22.5403 C   0  0  0  0  0  0
  -51.8251   -2.2610   15.2592 H   0  0  0  0  0  0
  -43.2475   -1.1168   21.3753 H   0  0  0  0  0  0
  -46.5431   -2.9443   12.7848 H   0  0  0  0  0  0
  -44.9479   -2.0952   13.8291 H   0  0  0  0  0  0
  -50.7063   -3.0143   13.2018 H   0  0  0  0  0  0
  -42.0417   -1.6543   19.2118 H   0  0  0  0  0  0
  1 23  1  0  0  0
  1 39  1  0  0  0
  2 24  1  0  0  0
  2 40  1  0  0  0
  3 27  1  0  0  0
  3 41  1  0  0  0
  4 28  1  0  0  0
  4 42  1  0  0  0
  5 31  1  0  0  0
  5 43  1  0  0  0
  6 32  1  0  0  0
  6 44  1  0  0  0
  7 29  2  0  0  0
  8 30  2  0  0  0
  9 10  1  0  0  0
  9 11  2  0  0  0
  9 13  1  0  0  0
 10 12  2  0  0  0
 10 14  1  0  0  0
 11 15  1  0  0  0
 11 19  1  0  0  0
 12 16  1  0  0  0
 12 20  1  0  0  0
 13 17  2  0  0  0
 13 21  1  0  0  0
 14 18  2  0  0  0
 14 22  1  0  0  0
 15 16  2  0  0  0
 15 25  1  0  0  0
 16 26  1  0  0  0
 17 18  1  0  0  0
 17 27  1  0  0  0
 18 28  1  0  0  0
 19 23  2  0  0  0
 19 29  1  0  0  0
 20 24  2  0  0  0
 20 30  1  0  0  0
 21 23  1  0  0  0
 21 31  2  0  0  0
 22 24  1  0  0  0
 22 32  2  0  0  0
 25 33  2  0  0  0
 25 37  1  0  0  0
 26 34  2  0  0  0
 26 38  1  0  0  0
 27 35  2  0  0  0
 28 36  2  0  0  0
 29 33  1  0  0  0
 30 34  1  0  0  0
 31 35  1  0  0  0
 32 36  1  0  0  0
M  END
>  <CHROM.0>
-163.76766681,179.22485846,-68.82494297

>  <CHROM.1>
-176.39952423,27.46721741,148.41860468,47.45144788,-151.63875322,25.09447714
-47.50125797,-1.50898255,18.23783708,2.61317947,-0.03054097,-1.78969844

>  <Name>
3663

>  <PUBCHEM_ATOM_DEF_STEREO_COUNT>
0

>  <PUBCHEM_ATOM_UDEF_STEREO_COUNT>
0

>  <PUBCHEM_BOND_DEF_STEREO_COUNT>
0

>  <PUBCHEM_BOND_UDEF_STEREO_COUNT>
0

>  <PUBCHEM_CACTVS_TAUTO_COUNT>
991

>  <PUBCHEM_COMPONENT_COUNT>
1

>  <PUBCHEM_COMPOUND_CID>
3663

>  <PUBCHEM_CONFORMER_DIVERSEORDER>
2
1

>  <PUBCHEM_CONFORMER_ID>
00000E4F00000002

>  <PUBCHEM_CONFORMER_RMSD>
0.6

>  <PUBCHEM_COORDINATE_TYPE>
2
5
10

>  <PUBCHEM_EFFECTIVE_ROTOR_COUNT>
0

>  <PUBCHEM_FEATURE_SELFOVERLAP>
81.639

>  <PUBCHEM_HEAVY_ATOM_COUNT>
38

>  <PUBCHEM_ISOTOPIC_ATOM_COUNT>
0

>  <PUBCHEM_MMFF94_ENERGY>
199.63

>  <PUBCHEM_MMFF94_PARTIAL_CHARGES>
38
1 -0.53
15 0.03
16 0.03
19 0.09
2 -0.53
20 0.09
23 0.08
24 0.08
25 -0.17
26 -0.17
27 0.08
28 0.08
29 0.47
3 -0.53
30 0.47
31 0.08
32 0.08
33 -0.14
34 -0.14
35 -0.15
36 -0.15
37 0.14
38 0.14
39 0.15
4 -0.53
40 0.15
41 0.15
42 0.15
49 0.45
5 -0.53
50 0.45
51 0.45
52 0.45
53 0.45
54 0.45
6 -0.53
7 -0.57
8 -0.57

>  <PUBCHEM_PHARMACOPHORE_FEATURES>
16
1 1 donor
1 2 donor
1 3 donor
1 4 donor
1 5 donor
1 6 donor
1 7 acceptor
1 8 acceptor
6 10 12 14 20 22 24 rings
6 11 15 19 25 29 33 rings
6 12 16 20 26 30 34 rings
6 13 17 21 27 31 35 rings
6 14 18 22 28 32 36 rings
6 9 10 11 12 15 16 rings
6 9 10 13 14 17 18 rings
6 9 11 13 19 21 23 rings

>  <PUBCHEM_SHAPE_FINGERPRINT>
10675989 125 18194398016588665341
10967382 1 18410573980861784590
1100329 8 18338797788838864377
11513181 2 18202562856523954462
12788726 201 17902227051119725024
13140716 1 18411980234758873768
1361 2 17834393415430342929
138480 1 17617941335497513320
14117953 113 17978504230875699972
14295345 954 17473281881373637993
14790565 3 18410860961981475845
15320467 1 18194682806863435847
19591789 44 18410575088958364515
19930381 70 18337670939776099219
20028762 73 18056188077985354245
20764821 26 18337674122272798285
20775438 99 17406502308368123415
23559900 14 18339635629615806240
350125 39 18267024955406711448
3882209 13 17978467014948150279
463206 1 17761496193550011432

>  <PUBCHEM_SHAPE_MULTIPOLES>
735.07
8
7.97
0.74
0.18
0.01
0
-0.01
-0.01
0.69
0.01
-0.58
0
0.95

>  <PUBCHEM_SHAPE_SELFOVERLAP>
1773.472

>  <PUBCHEM_SHAPE_VOLUME>
357.3

>  <RI>
-4.35244e+08

>  <Rbt.Current_Directory>
/root/miniconda3/envs/rdock/share/rxdock-2013.1.1_148c5bd1-0/data/ligands/prepped_ligands/Hypericin

>  <Rbt.Executable>
rbdock/0.1.0

>  <Rbt.Library>
librxdock.so/0.1.0

>  <Rbt.Parameter_File>
/root/miniconda3/envs/rdock/share/rxdock-2013.1.1_148c5bd1-0/data/scripts/dock.prm

>  <Rbt.Receptor>
def.prm

>  <SCORE>
0.453242

>  <SCORE.INTER>
-0.833984

>  <SCORE.INTER.CONST>
1

>  <SCORE.INTER.POLAR>
-0.223903

>  <SCORE.INTER.REPUL>
0.14149

>  <SCORE.INTER.ROT>
0

>  <SCORE.INTER.VDW>
-6.18017

>  <SCORE.INTER.norm>
-0.0219469

>  <SCORE.INTRA>
-0.753746

>  <SCORE.INTRA.DIHEDRAL>
2.68919

>  <SCORE.INTRA.DIHEDRAL.0>
4.15609

>  <SCORE.INTRA.POLAR>
-0.464688

>  <SCORE.INTRA.POLAR.0>
-1.21242

>  <SCORE.INTRA.REPUL>
0

>  <SCORE.INTRA.REPUL.0>
0

>  <SCORE.INTRA.VDW>
-0.518404

>  <SCORE.INTRA.VDW.0>
2.93348

>  <SCORE.INTRA.norm>
-0.0198354

>  <SCORE.RESTR>
2.59619

>  <SCORE.RESTR.CAVITY>
2.59619

>  <SCORE.RESTR.norm>
0.0683207

>  <SCORE.SYSTEM>
-0.555215

>  <SCORE.SYSTEM.CONST>
0

>  <SCORE.SYSTEM.DIHEDRAL>
0.800155

>  <SCORE.SYSTEM.VDW>
-0.955292

>  <SCORE.SYSTEM.norm>
-0.0146109

>  <SCORE.heavy>
38

>  <SCORE.norm>
0.0119274

$$$$
3663
  RxDock  02242101223D
librxdock.so/0.1.0
 44 51  0  0  0  0  0  0  0  0999 V2000
  -44.4233   -0.1465   18.4351 O   0  0  0  0  0  0
  -53.1973   -4.2278   17.1511 O   0  0  0  0  0  0
  -46.4647   -3.2709   13.4090 O   0  0  0  0  0  0
  -48.5711   -3.7592   12.9590 O   0  0  0  0  0  0
  -43.7083   -0.8737   16.1368 O   0  0  0  0  0  0
  -52.6060   -4.8414   14.7854 O   0  0  0  0  0  0
  -45.1203    0.3138   20.7904 O   0  0  0  0  0  0
  -53.7960   -3.3567   19.4152 O   0  0  0  0  0  0
  -48.1718   -1.8955   17.8507 C   0  0  0  0  0  0
  -49.4309   -2.4973   17.6711 C   0  0  0  0  0  0
  -47.8893   -1.2177   19.0632 C   0  0  0  0  0  0
  -50.3548   -2.5158   18.7459 C   0  0  0  0  0  0
  -47.2083   -1.9460   16.8073 C   0  0  0  0  0  0
  -49.7533   -3.1056   16.4278 C   0  0  0  0  0  0
  -48.8654   -1.1319   20.0900 C   0  0  0  0  0  0
  -50.0186   -1.9442   20.0006 C   0  0  0  0  0  0
  -47.5108   -2.5701   15.5686 C   0  0  0  0  0  0
  -48.8070   -3.1430   15.3702 C   0  0  0  0  0  0
  -46.6125   -0.6527   19.2213 C   0  0  0  0  0  0
  -51.6138   -3.0991   18.5239 C   0  0  0  0  0  0
  -45.9319   -1.3582   17.0138 C   0  0  0  0  0  0
  -51.0384   -3.6841   16.2520 C   0  0  0  0  0  0
  -45.6424   -0.7288   18.2230 C   0  0  0  0  0  0
  -51.9601   -3.6640   17.2973 C   0  0  0  0  0  0
  -48.6359   -0.0842   21.1321 C   0  0  0  0  0  0
  -50.8662   -2.3566   21.1617 C   0  0  0  0  0  0
  -46.4917   -2.5835   14.5837 C   0  0  0  0  0  0
  -49.2110   -3.7614   14.1607 C   0  0  0  0  0  0
  -46.2701    0.0262   20.4870 C   0  0  0  0  0  0
  -52.6154   -3.1005   19.6087 C   0  0  0  0  0  0
  -44.9609   -1.4022   16.0101 C   0  0  0  0  0  0
  -51.3874   -4.2789   15.0369 C   0  0  0  0  0  0
  -47.4056    0.4102   21.3442 C   0  0  0  0  0  0
  -52.1011   -2.8459   20.9659 C   0  0  0  0  0  0
  -45.2391   -2.0135   14.7994 C   0  0  0  0  0  0
  -50.4775   -4.3168   13.9943 C   0  0  0  0  0  0
  -49.7831    0.5888   21.8343 C   0  0  0  0  0  0
  -50.3070   -2.4254   22.5563 C   0  0  0  0  0  0
  -44.5032    0.5924   19.0578 H   0  0  0  0  0  0
  -53.8639   -3.7279   17.6465 H   0  0  0  0  0  0
  -47.1108   -3.9938   13.4756 H   0  0  0  0  0  0
  -48.9700   -4.3755   12.3226 H   0  0  0  0  0  0
  -43.6127   -0.4449   17.0042 H   0  0  0  0  0  0
  -53.1900   -4.7357   15.5554 H   0  0  0  0  0  0
  1 23  1  0  0  0
  1 39  1  0  0  0
  2 24  1  0  0  0
  2 40  1  0  0  0
  3 27  1  0  0  0
  3 41  1  0  0  0
  4 28  1  0  0  0
  4 42  1  0  0  0
  5 31  1  0  0  0
  5 43  1  0  0  0
  6 32  1  0  0  0
  6 44  1  0  0  0
  7 29  2  0  0  0
  8 30  2  0  0  0
  9 10  1  0  0  0
  9 11  2  0  0  0
  9 13  1  0  0  0
 10 12  2  0  0  0
 10 14  1  0  0  0
 11 15  1  0  0  0
 11 19  1  0  0  0
 12 16  1  0  0  0
 12 20  1  0  0  0
 13 17  2  0  0  0
 13 21  1  0  0  0
 14 18  2  0  0  0
 14 22  1  0  0  0
 15 16  2  0  0  0
 15 25  1  0  0  0
 16 26  1  0  0  0
 17 18  1  0  0  0
 17 27  1  0  0  0
 18 28  1  0  0  0
 19 23  2  0  0  0
 19 29  1  0  0  0
 20 24  2  0  0  0
 20 30  1  0  0  0
 21 23  1  0  0  0
 21 31  2  0  0  0
 22 24  1  0  0  0
 22 32  2  0  0  0
 25 33  2  0  0  0
 25 37  1  0  0  0
 26 34  2  0  0  0
 26 38  1  0  0  0
 27 35  2  0  0  0
 28 36  2  0  0  0
 29 33  1  0  0  0
 30 34  1  0  0  0
 31 35  1  0  0  0
 32 36  1  0  0  0
M  END
>  <CHROM.0>
65.84314878,177.62841529,-67.13175375

>  <CHROM.1>
-27.00433431,36.09886486,-19.37263364,170.37353523,-1.93057936,2.06567877
-48.79314608,-2.20845967,17.71927366,-0.30571413,-0.37037231,-1.95712486

>  <Name>
3663

>  <PUBCHEM_ATOM_DEF_STEREO_COUNT>
0

>  <PUBCHEM_ATOM_UDEF_STEREO_COUNT>
0

>  <PUBCHEM_BOND_DEF_STEREO_COUNT>
0

>  <PUBCHEM_BOND_UDEF_STEREO_COUNT>
0

>  <PUBCHEM_CACTVS_TAUTO_COUNT>
991

>  <PUBCHEM_COMPONENT_COUNT>
1

>  <PUBCHEM_COMPOUND_CID>
3663

>  <PUBCHEM_CONFORMER_DIVERSEORDER>
2
1

>  <PUBCHEM_CONFORMER_ID>
00000E4F00000002

>  <PUBCHEM_CONFORMER_RMSD>
0.6

>  <PUBCHEM_COORDINATE_TYPE>
2
5
10

>  <PUBCHEM_EFFECTIVE_ROTOR_COUNT>
0

>  <PUBCHEM_FEATURE_SELFOVERLAP>
81.639

>  <PUBCHEM_HEAVY_ATOM_COUNT>
38

>  <PUBCHEM_ISOTOPIC_ATOM_COUNT>
0

>  <PUBCHEM_MMFF94_ENERGY>
199.63

>  <PUBCHEM_MMFF94_PARTIAL_CHARGES>
38
1 -0.53
15 0.03
16 0.03
19 0.09
2 -0.53
20 0.09
23 0.08
24 0.08
25 -0.17
26 -0.17
27 0.08
28 0.08
29 0.47
3 -0.53
30 0.47
31 0.08
32 0.08
33 -0.14
34 -0.14
35 -0.15
36 -0.15
37 0.14
38 0.14
39 0.15
4 -0.53
40 0.15
41 0.15
42 0.15
49 0.45
5 -0.53
50 0.45
51 0.45
52 0.45
53 0.45
54 0.45
6 -0.53
7 -0.57
8 -0.57

>  <PUBCHEM_PHARMACOPHORE_FEATURES>
16
1 1 donor
1 2 donor
1 3 donor
1 4 donor
1 5 donor
1 6 donor
1 7 acceptor
1 8 acceptor
6 10 12 14 20 22 24 rings
6 11 15 19 25 29 33 rings
6 12 16 20 26 30 34 rings
6 13 17 21 27 31 35 rings
6 14 18 22 28 32 36 rings
6 9 10 11 12 15 16 rings
6 9 10 13 14 17 18 rings
6 9 11 13 19 21 23 rings

>  <PUBCHEM_SHAPE_FINGERPRINT>
10675989 125 18194398016588665341
10967382 1 18410573980861784590
1100329 8 18338797788838864377
11513181 2 18202562856523954462
12788726 201 17902227051119725024
13140716 1 18411980234758873768
1361 2 17834393415430342929
138480 1 17617941335497513320
14117953 113 17978504230875699972
14295345 954 17473281881373637993
14790565 3 18410860961981475845
15320467 1 18194682806863435847
19591789 44 18410575088958364515
19930381 70 18337670939776099219
20028762 73 18056188077985354245
20764821 26 18337674122272798285
20775438 99 17406502308368123415
23559900 14 18339635629615806240
350125 39 18267024955406711448
3882209 13 17978467014948150279
463206 1 17761496193550011432

>  <PUBCHEM_SHAPE_MULTIPOLES>
735.07
8
7.97
0.74
0.18
0.01
0
-0.01
-0.01
0.69
0.01
-0.58
0
0.95

>  <PUBCHEM_SHAPE_SELFOVERLAP>
1773.472

>  <PUBCHEM_SHAPE_VOLUME>
357.3

>  <RI>
-4.35244e+08

>  <Rbt.Current_Directory>
/root/miniconda3/envs/rdock/share/rxdock-2013.1.1_148c5bd1-0/data/ligands/prepped_ligands/Hypericin

>  <Rbt.Executable>
rbdock/0.1.0

>  <Rbt.Library>
librxdock.so/0.1.0

>  <Rbt.Parameter_File>
/root/miniconda3/envs/rdock/share/rxdock-2013.1.1_148c5bd1-0/data/scripts/dock.prm

>  <Rbt.Receptor>
def.prm

>  <SCORE>
-13.1525

>  <SCORE.INTER>
-11.5932

>  <SCORE.INTER.CONST>
1

>  <SCORE.INTER.POLAR>
-1.33481

>  <SCORE.INTER.REPUL>
0.0412612

>  <SCORE.INTER.ROT>
0

>  <SCORE.INTER.VDW>
-12.6611

>  <SCORE.INTER.norm>
-0.305084

>  <SCORE.INTRA>
-2.89829

>  <SCORE.INTRA.DIHEDRAL>
-0.382163

>  <SCORE.INTRA.DIHEDRAL.0>
4.15609

>  <SCORE.INTRA.POLAR>
-0.77513

>  <SCORE.INTRA.POLAR.0>
-1.21242

>  <SCORE.INTRA.REPUL>
0

>  <SCORE.INTRA.REPUL.0>
0

>  <SCORE.INTRA.VDW>
-0.0717616

>  <SCORE.INTRA.VDW.0>
2.93348

>  <SCORE.INTRA.norm>
-0.0762707

>  <SCORE.RESTR>
2.29871

>  <SCORE.RESTR.CAVITY>
2.29871

>  <SCORE.RESTR.norm>
0.0604922

>  <SCORE.SYSTEM>
-0.959794

>  <SCORE.SYSTEM.CONST>
0

>  <SCORE.SYSTEM.DIHEDRAL>
0.236973

>  <SCORE.SYSTEM.VDW>
-1.07828

>  <SCORE.SYSTEM.norm>
-0.0252577

>  <SCORE.heavy>
38

>  <SCORE.norm>
-0.34612

$$$$
3663
  RxDock  02242101223D
librxdock.so/0.1.0
 44 51  0  0  0  0  0  0  0  0999 V2000
  -50.8486   -5.3111   14.0506 O   0  0  0  0  0  0
  -47.7006   -0.5858   21.9910 O   0  0  0  0  0  0
  -46.3078   -1.0132   14.3671 O   0  0  0  0  0  0
  -45.3078   -0.3239   16.2118 O   0  0  0  0  0  0
  -49.1586   -4.1148   12.6240 O   0  0  0  0  0  0
  -45.8813    0.5222   20.6550 O   0  0  0  0  0  0
  -52.6589   -6.2621   15.4870 O   0  0  0  0  0  0
  -49.3646   -1.9203   23.2925 O   0  0  0  0  0  0
  -49.4722   -3.2789   17.4311 C   0  0  0  0  0  0
  -49.0285   -2.5861   18.5726 C   0  0  0  0  0  0
  -50.5152   -4.2308   17.5545 C   0  0  0  0  0  0
  -49.7058   -2.7659   19.8047 C   0  0  0  0  0  0
  -48.8529   -3.0414   16.1742 C   0  0  0  0  0  0
  -47.9277   -1.6926   18.4744 C   0  0  0  0  0  0
  -51.1069   -4.4982   18.8166 C   0  0  0  0  0  0
  -50.8301   -3.6272   19.8948 C   0  0  0  0  0  0
  -47.7668   -2.1345   16.0593 C   0  0  0  0  0  0
  -47.2867   -1.4637   17.2286 C   0  0  0  0  0  0
  -50.9539   -4.8837   16.3902 C   0  0  0  0  0  0
  -49.2190   -2.0816   20.9313 C   0  0  0  0  0  0
  -49.3303   -3.7275   15.0260 C   0  0  0  0  0  0
  -47.4734   -1.0220   19.6410 C   0  0  0  0  0  0
  -50.3839   -4.6321   15.1430 C   0  0  0  0  0  0
  -48.1154   -1.2327   20.8600 C   0  0  0  0  0  0
  -51.8901   -5.7677   18.9220 C   0  0  0  0  0  0
  -51.7038   -3.4481   21.0953 C   0  0  0  0  0  0
  -47.2108   -1.9494   14.7688 C   0  0  0  0  0  0
  -46.1919   -0.5636   17.2188 C   0  0  0  0  0  0
  -52.0652   -5.8521   16.4750 C   0  0  0  0  0  0
  -49.8755   -2.2762   22.2394 C   0  0  0  0  0  0
  -48.7482   -3.5058   13.7752 C   0  0  0  0  0  0
  -46.3864   -0.1466   19.5769 C   0  0  0  0  0  0
  -52.3790   -6.3620   17.8216 C   0  0  0  0  0  0
  -51.2271   -2.8623   22.2054 C   0  0  0  0  0  0
  -47.6928   -2.6191   13.6464 C   0  0  0  0  0  0
  -45.7470    0.0814   18.3704 C   0  0  0  0  0  0
  -51.9909   -6.5223   20.2192 C   0  0  0  0  0  0
  -53.1801   -3.7309   21.0408 C   0  0  0  0  0  0
  -51.6292   -5.8368   14.2839 H   0  0  0  0  0  0
  -47.9969   -1.0565   22.7849 H   0  0  0  0  0  0
  -46.5041   -0.7924   13.4412 H   0  0  0  0  0  0
  -45.1184    0.6223   16.0986 H   0  0  0  0  0  0
  -49.7926   -4.8230   12.8285 H   0  0  0  0  0  0
  -46.4130    0.3334   21.4466 H   0  0  0  0  0  0
  1 23  1  0  0  0
  1 39  1  0  0  0
  2 24  1  0  0  0
  2 40  1  0  0  0
  3 27  1  0  0  0
  3 41  1  0  0  0
  4 28  1  0  0  0
  4 42  1  0  0  0
  5 31  1  0  0  0
  5 43  1  0  0  0
  6 32  1  0  0  0
  6 44  1  0  0  0
  7 29  2  0  0  0
  8 30  2  0  0  0
  9 10  1  0  0  0
  9 11  2  0  0  0
  9 13  1  0  0  0
 10 12  2  0  0  0
 10 14  1  0  0  0
 11 15  1  0  0  0
 11 19  1  0  0  0
 12 16  1  0  0  0
 12 20  1  0  0  0
 13 17  2  0  0  0
 13 21  1  0  0  0
 14 18  2  0  0  0
 14 22  1  0  0  0
 15 16  2  0  0  0
 15 25  1  0  0  0
 16 26  1  0  0  0
 17 18  1  0  0  0
 17 27  1  0  0  0
 18 28  1  0  0  0
 19 23  2  0  0  0
 19 29  1  0  0  0
 20 24  2  0  0  0
 20 30  1  0  0  0
 21 23  1  0  0  0
 21 31  2  0  0  0
 22 24  1  0  0  0
 22 32  2  0  0  0
 25 33  2  0  0  0
 25 37  1  0  0  0
 26 34  2  0  0  0
 26 38  1  0  0  0
 27 35  2  0  0  0
 28 36  2  0  0  0
 29 33  1  0  0  0
 30 34  1  0  0  0
 31 35  1  0  0  0
 32 36  1  0  0  0
M  END
>  <CHROM.0>
59.90606513,-61.39365576,-68.26559745

>  <CHROM.1>
6.86836899,23.02823451,-147.33513309,137.18462112,-9.85024404,-2.84189186
-49.22012526,-2.91154138,17.97665818,1.99358769,-0.69949905,-1.83162623

>  <Name>
3663

>  <PUBCHEM_ATOM_DEF_STEREO_COUNT>
0

>  <PUBCHEM_ATOM_UDEF_STEREO_COUNT>
0

>  <PUBCHEM_BOND_DEF_STEREO_COUNT>
0

>  <PUBCHEM_BOND_UDEF_STEREO_COUNT>
0

>  <PUBCHEM_CACTVS_TAUTO_COUNT>
991

>  <PUBCHEM_COMPONENT_COUNT>
1

>  <PUBCHEM_COMPOUND_CID>
3663

>  <PUBCHEM_CONFORMER_DIVERSEORDER>
2
1

>  <PUBCHEM_CONFORMER_ID>
00000E4F00000002

>  <PUBCHEM_CONFORMER_RMSD>
0.6

>  <PUBCHEM_COORDINATE_TYPE>
2
5
10

>  <PUBCHEM_EFFECTIVE_ROTOR_COUNT>
0

>  <PUBCHEM_FEATURE_SELFOVERLAP>
81.639

>  <PUBCHEM_HEAVY_ATOM_COUNT>
38

>  <PUBCHEM_ISOTOPIC_ATOM_COUNT>
0

>  <PUBCHEM_MMFF94_ENERGY>
199.63

>  <PUBCHEM_MMFF94_PARTIAL_CHARGES>
38
1 -0.53
15 0.03
16 0.03
19 0.09
2 -0.53
20 0.09
23 0.08
24 0.08
25 -0.17
26 -0.17
27 0.08
28 0.08
29 0.47
3 -0.53
30 0.47
31 0.08
32 0.08
33 -0.14
34 -0.14
35 -0.15
36 -0.15
37 0.14
38 0.14
39 0.15
4 -0.53
40 0.15
41 0.15
42 0.15
49 0.45
5 -0.53
50 0.45
51 0.45
52 0.45
53 0.45
54 0.45
6 -0.53
7 -0.57
8 -0.57

>  <PUBCHEM_PHARMACOPHORE_FEATURES>
16
1 1 donor
1 2 donor
1 3 donor
1 4 donor
1 5 donor
1 6 donor
1 7 acceptor
1 8 acceptor
6 10 12 14 20 22 24 rings
6 11 15 19 25 29 33 rings
6 12 16 20 26 30 34 rings
6 13 17 21 27 31 35 rings
6 14 18 22 28 32 36 rings
6 9 10 11 12 15 16 rings
6 9 10 13 14 17 18 rings
6 9 11 13 19 21 23 rings

>  <PUBCHEM_SHAPE_FINGERPRINT>
10675989 125 18194398016588665341
10967382 1 18410573980861784590
1100329 8 18338797788838864377
11513181 2 18202562856523954462
12788726 201 17902227051119725024
13140716 1 18411980234758873768
1361 2 17834393415430342929
138480 1 17617941335497513320
14117953 113 17978504230875699972
14295345 954 17473281881373637993
14790565 3 18410860961981475845
15320467 1 18194682806863435847
19591789 44 18410575088958364515
19930381 70 18337670939776099219
20028762 73 18056188077985354245
20764821 26 18337674122272798285
20775438 99 17406502308368123415
23559900 14 18339635629615806240
350125 39 18267024955406711448
3882209 13 17978467014948150279
463206 1 17761496193550011432

>  <PUBCHEM_SHAPE_MULTIPOLES>
735.07
8
7.97
0.74
0.18
0.01
0
-0.01
-0.01
0.69
0.01
-0.58
0
0.95

>  <PUBCHEM_SHAPE_SELFOVERLAP>
1773.472

>  <PUBCHEM_SHAPE_VOLUME>
357.3

>  <RI>
-4.35244e+08

>  <Rbt.Current_Directory>
/root/miniconda3/envs/rdock/share/rxdock-2013.1.1_148c5bd1-0/data/ligands/prepped_ligands/Hypericin

>  <Rbt.Executable>
rbdock/0.1.0

>  <Rbt.Library>
librxdock.so/0.1.0

>  <Rbt.Parameter_File>
/root/miniconda3/envs/rdock/share/rxdock-2013.1.1_148c5bd1-0/data/scripts/dock.prm

>  <Rbt.Receptor>
def.prm

>  <SCORE>
-6.88967

>  <SCORE.INTER>
-9.30989

>  <SCORE.INTER.CONST>
1

>  <SCORE.INTER.POLAR>
-0.50575

>  <SCORE.INTER.REPUL>
0.176562

>  <SCORE.INTER.ROT>
0

>  <SCORE.INTER.VDW>
-13.8732

>  <SCORE.INTER.norm>
-0.244997

>  <SCORE.INTRA>
-0.256711

>  <SCORE.INTRA.DIHEDRAL>
0.399817

>  <SCORE.INTRA.DIHEDRAL.0>
4.15609

>  <SCORE.INTRA.POLAR>
-0.445366

>  <SCORE.INTRA.POLAR.0>
-1.21242

>  <SCORE.INTRA.REPUL>
0

>  <SCORE.INTRA.REPUL.0>
0

>  <SCORE.INTRA.VDW>
1.05763

>  <SCORE.INTRA.VDW.0>
2.93348

>  <SCORE.INTRA.norm>
-0.00675555

>  <SCORE.RESTR>
3.67401

>  <SCORE.RESTR.CAVITY>
3.67401

>  <SCORE.RESTR.norm>
0.0966845

>  <SCORE.SYSTEM>
-0.997077

>  <SCORE.SYSTEM.CONST>
0

>  <SCORE.SYSTEM.DIHEDRAL>
0.182354

>  <SCORE.SYSTEM.VDW>
-1.08825

>  <SCORE.SYSTEM.norm>
-0.0262389

>  <SCORE.heavy>
38

>  <SCORE.norm>
-0.181307

$$$$
3663
  RxDock  02242101223D
librxdock.so/0.1.0
 44 51  0  0  0  0  0  0  0  0999 V2000
  -53.1993   -4.2933   17.2261 O   0  0  0  0  0  0
  -44.4559   -0.1089   18.3807 O   0  0  0  0  0  0
  -48.6172   -3.8274   12.9860 O   0  0  0  0  0  0
  -46.5118   -3.3126   13.4105 O   0  0  0  0  0  0
  -52.6225   -4.9314   14.8634 O   0  0  0  0  0  0
  -43.7537   -0.8583   16.0856 O   0  0  0  0  0  0
  -53.7856   -3.4021   19.4859 O   0  0  0  0  0  0
  -45.1354    0.3715   20.7368 O   0  0  0  0  0  0
  -49.4460   -2.5189   17.6909 C   0  0  0  0  0  0
  -48.1915   -1.9023   17.8517 C   0  0  0  0  0  0
  -50.3596   -2.5344   18.7745 C   0  0  0  0  0  0
  -47.9047   -1.2078   19.0536 C   0  0  0  0  0  0
  -49.7736   -3.1451   16.4579 C   0  0  0  0  0  0
  -47.2371   -1.9555   16.8000 C   0  0  0  0  0  0
  -50.0176   -1.9447   20.0194 C   0  0  0  0  0  0
  -48.8719   -1.1199   20.0884 C   0  0  0  0  0  0
  -48.8368   -3.1854   15.3920 C   0  0  0  0  0  0
  -47.5446   -2.5972   15.5716 C   0  0  0  0  0  0
  -51.6145   -3.1330   18.5711 C   0  0  0  0  0  0
  -46.6322   -0.6283   19.1933 C   0  0  0  0  0  0
  -51.0542   -3.7388   16.3011 C   0  0  0  0  0  0
  -45.9649   -1.3528   16.9877 C   0  0  0  0  0  0
  -51.9663   -3.7158   17.3545 C   0  0  0  0  0  0
  -45.6706   -0.7063   18.1868 C   0  0  0  0  0  0
  -50.8498   -2.3526   21.1930 C   0  0  0  0  0  0
  -48.6433   -0.0582   21.1165 C   0  0  0  0  0  0
  -49.2454   -3.8224   14.1937 C   0  0  0  0  0  0
  -46.5345   -2.6122   14.5776 C   0  0  0  0  0  0
  -52.6059   -3.1320   19.6653 C   0  0  0  0  0  0
  -46.2849    0.0686   20.4478 C   0  0  0  0  0  0
  -51.4083   -4.3518   15.0964 C   0  0  0  0  0  0
  -45.0027   -1.3992   15.9757 C   0  0  0  0  0  0
  -52.0814   -2.8569   21.0147 C   0  0  0  0  0  0
  -47.4161    0.4507   21.3114 C   0  0  0  0  0  0
  -50.5076   -4.3928   14.0457 C   0  0  0  0  0  0
  -45.2858   -2.0275   14.7750 C   0  0  0  0  0  0
  -50.2769   -2.3995   22.5829 C   0  0  0  0  0  0
  -49.7907    0.6114   21.8218 C   0  0  0  0  0  0
  -53.8820   -3.7284   17.6197 H   0  0  0  0  0  0
  -44.4239    0.3337   19.2425 H   0  0  0  0  0  0
  -49.0826   -4.4606   12.4142 H   0  0  0  0  0  0
  -47.3103   -3.1719   12.8751 H   0  0  0  0  0  0
  -52.5019   -5.8262   14.5029 H   0  0  0  0  0  0
  -43.1718   -1.4557   16.5852 H   0  0  0  0  0  0
  1 23  1  0  0  0
  1 39  1  0  0  0
  2 24  1  0  0  0
  2 40  1  0  0  0
  3 27  1  0  0  0
  3 41  1  0  0  0
  4 28  1  0  0  0
  4 42  1  0  0  0
  5 31  1  0  0  0
  5 43  1  0  0  0
  6 32  1  0  0  0
  6 44  1  0  0  0
  7 29  2  0  0  0
  8 30  2  0  0  0
  9 10  1  0  0  0
  9 11  2  0  0  0
  9 13  1  0  0  0
 10 12  2  0  0  0
 10 14  1  0  0  0
 11 15  1  0  0  0
 11 19  1  0  0  0
 12 16  1  0  0  0
 12 20  1  0  0  0
 13 17  2  0  0  0
 13 21  1  0  0  0
 14 18  2  0  0  0
 14 22  1  0  0  0
 15 16  2  0  0  0
 15 25  1  0  0  0
 16 26  1  0  0  0
 17 18  1  0  0  0
 17 27  1  0  0  0
 18 28  1  0  0  0
 19 23  2  0  0  0
 19 29  1  0  0  0
 20 24  2  0  0  0
 20 30  1  0  0  0
 21 23  1  0  0  0
 21 31  2  0  0  0
 22 24  1  0  0  0
 22 32  2  0  0  0
 25 33  2  0  0  0
 25 37  1  0  0  0
 26 34  2  0  0  0
 26 38  1  0  0  0
 27 35  2  0  0  0
 28 36  2  0  0  0
 29 33  1  0  0  0
 30 34  1  0  0  0
 31 35  1  0  0  0
 32 36  1  0  0  0
M  END
>  <CHROM.0>
-175.51621402,177.74525352,56.57529609

>  <CHROM.1>
43.81898103,-1.05784310,171.64621175,52.80829285,-129.94186409,80.19519485
-48.80847495,-2.22652624,17.72613162,2.82881350,-0.38260973,-1.96637389

>  <Name>
3663

>  <PUBCHEM_ATOM_DEF_STEREO_COUNT>
0

>  <PUBCHEM_ATOM_UDEF_STEREO_COUNT>
0

>  <PUBCHEM_BOND_DEF_STEREO_COUNT>
0

>  <PUBCHEM_BOND_UDEF_STEREO_COUNT>
0

>  <PUBCHEM_CACTVS_TAUTO_COUNT>
991

>  <PUBCHEM_COMPONENT_COUNT>
1

>  <PUBCHEM_COMPOUND_CID>
3663

>  <PUBCHEM_CONFORMER_DIVERSEORDER>
2
1

>  <PUBCHEM_CONFORMER_ID>
00000E4F00000002

>  <PUBCHEM_CONFORMER_RMSD>
0.6

>  <PUBCHEM_COORDINATE_TYPE>
2
5
10

>  <PUBCHEM_EFFECTIVE_ROTOR_COUNT>
0

>  <PUBCHEM_FEATURE_SELFOVERLAP>
81.639

>  <PUBCHEM_HEAVY_ATOM_COUNT>
38

>  <PUBCHEM_ISOTOPIC_ATOM_COUNT>
0

>  <PUBCHEM_MMFF94_ENERGY>
199.63

>  <PUBCHEM_MMFF94_PARTIAL_CHARGES>
38
1 -0.53
15 0.03
16 0.03
19 0.09
2 -0.53
20 0.09
23 0.08
24 0.08
25 -0.17
26 -0.17
27 0.08
28 0.08
29 0.47
3 -0.53
30 0.47
31 0.08
32 0.08
33 -0.14
34 -0.14
35 -0.15
36 -0.15
37 0.14
38 0.14
39 0.15
4 -0.53
40 0.15
41 0.15
42 0.15
49 0.45
5 -0.53
50 0.45
51 0.45
52 0.45
53 0.45
54 0.45
6 -0.53
7 -0.57
8 -0.57

>  <PUBCHEM_PHARMACOPHORE_FEATURES>
16
1 1 donor
1 2 donor
1 3 donor
1 4 donor
1 5 donor
1 6 donor
1 7 acceptor
1 8 acceptor
6 10 12 14 20 22 24 rings
6 11 15 19 25 29 33 rings
6 12 16 20 26 30 34 rings
6 13 17 21 27 31 35 rings
6 14 18 22 28 32 36 rings
6 9 10 11 12 15 16 rings
6 9 10 13 14 17 18 rings
6 9 11 13 19 21 23 rings

>  <PUBCHEM_SHAPE_FINGERPRINT>
10675989 125 18194398016588665341
10967382 1 18410573980861784590
1100329 8 18338797788838864377
11513181 2 18202562856523954462
12788726 201 17902227051119725024
13140716 1 18411980234758873768
1361 2 17834393415430342929
138480 1 17617941335497513320
14117953 113 17978504230875699972
14295345 954 17473281881373637993
14790565 3 18410860961981475845
15320467 1 18194682806863435847
19591789 44 18410575088958364515
19930381 70 18337670939776099219
20028762 73 18056188077985354245
20764821 26 18337674122272798285
20775438 99 17406502308368123415
23559900 14 18339635629615806240
350125 39 18267024955406711448
3882209 13 17978467014948150279
463206 1 17761496193550011432

>  <PUBCHEM_SHAPE_MULTIPOLES>
735.07
8
7.97
0.74
0.18
0.01
0
-0.01
-0.01
0.69
0.01
-0.58
0
0.95

>  <PUBCHEM_SHAPE_SELFOVERLAP>
1773.472

>  <PUBCHEM_SHAPE_VOLUME>
357.3

>  <RI>
-4.35244e+08

>  <Rbt.Current_Directory>
/root/miniconda3/envs/rdock/share/rxdock-2013.1.1_148c5bd1-0/data/ligands/prepped_ligands/Hypericin

>  <Rbt.Executable>
rbdock/0.1.0

>  <Rbt.Library>
librxdock.so/0.1.0

>  <Rbt.Parameter_File>
/root/miniconda3/envs/rdock/share/rxdock-2013.1.1_148c5bd1-0/data/scripts/dock.prm

>  <Rbt.Receptor>
def.prm

>  <SCORE>
-1.54388

>  <SCORE.INTER>
-10.2756

>  <SCORE.INTER.CONST>
1

>  <SCORE.INTER.POLAR>
-0.943

>  <SCORE.INTER.REPUL>
0.00526095

>  <SCORE.INTER.ROT>
0

>  <SCORE.INTER.VDW>
-12.4957

>  <SCORE.INTER.norm>
-0.27041

>  <SCORE.INTRA>
7.43227

>  <SCORE.INTRA.DIHEDRAL>
8.51451

>  <SCORE.INTRA.DIHEDRAL.0>
4.15609

>  <SCORE.INTRA.POLAR>
0.939124

>  <SCORE.INTRA.POLAR.0>
-1.21242

>  <SCORE.INTRA.REPUL>
0

>  <SCORE.INTRA.REPUL.0>
0

>  <SCORE.INTRA.VDW>
-0.0180024

>  <SCORE.INTRA.VDW.0>
2.93348

>  <SCORE.INTRA.norm>
0.195586

>  <SCORE.RESTR>
2.32434

>  <SCORE.RESTR.CAVITY>
2.32434

>  <SCORE.RESTR.norm>
0.0611667

>  <SCORE.SYSTEM>
-1.02492

>  <SCORE.SYSTEM.CONST>
0

>  <SCORE.SYSTEM.DIHEDRAL>
0.10299

>  <SCORE.SYSTEM.VDW>
-1.07642

>  <SCORE.SYSTEM.norm>
-0.0269716

>  <SCORE.heavy>
38

>  <SCORE.norm>
-0.0406284

$$$$
3663
  RxDock  02242101223D
librxdock.so/0.1.0
 44 51  0  0  0  0  0  0  0  0999 V2000
  -44.4908   -0.3873   18.6985 O   0  0  0  0  0  0
  -53.2828   -4.2570   16.9618 O   0  0  0  0  0  0
  -46.4501   -3.1692   13.4436 O   0  0  0  0  0  0
  -48.5511   -3.5990   12.9155 O   0  0  0  0  0  0
  -43.7298   -0.9827   16.3771 O   0  0  0  0  0  0
  -52.6424   -4.7332   14.5774 O   0  0  0  0  0  0
  -45.2385   -0.0619   21.0607 O   0  0  0  0  0  0
  -53.9247   -3.5175   19.2607 O   0  0  0  0  0  0
  -48.2462   -2.0437   17.9205 C   0  0  0  0  0  0
  -49.5081   -2.6154   17.6749 C   0  0  0  0  0  0
  -47.9844   -1.4454   19.1785 C   0  0  0  0  0  0
  -50.4580   -2.6864   18.7247 C   0  0  0  0  0  0
  -47.2585   -2.0440   16.8987 C   0  0  0  0  0  0
  -49.8082   -3.1419   16.3894 C   0  0  0  0  0  0
  -48.9838   -1.4086   20.1857 C   0  0  0  0  0  0
  -50.1448   -2.1974   20.0196 C   0  0  0  0  0  0
  -47.5389   -2.5869   15.6173 C   0  0  0  0  0  0
  -48.8372   -3.1280   15.3539 C   0  0  0  0  0  0
  -46.7047   -0.9094   19.4008 C   0  0  0  0  0  0
  -51.7186   -3.2370   18.4380 C   0  0  0  0  0  0
  -45.9801   -1.4882   17.1706 C   0  0  0  0  0  0
  -51.0960   -3.6902   16.1485 C   0  0  0  0  0  0
  -45.7118   -0.9381   18.4226 C   0  0  0  0  0  0
  -52.0423   -3.7209   17.1712 C   0  0  0  0  0  0
  -48.7661   -0.4299   21.2952 C   0  0  0  0  0  0
  -51.0254   -2.6678   21.1331 C   0  0  0  0  0  0
  -46.4966   -2.5546   14.6575 C   0  0  0  0  0  0
  -49.2198   -3.6656   14.0995 C   0  0  0  0  0  0
  -46.3842   -0.3141   20.7135 C   0  0  0  0  0  0
  -52.7460   -3.2904   19.4970 C   0  0  0  0  0  0
  -44.9857   -1.4846   16.1890 C   0  0  0  0  0  0
  -51.4231   -4.2046   14.8913 C   0  0  0  0  0  0
  -47.5351    0.0330   21.5659 C   0  0  0  0  0  0
  -52.2614   -3.1266   20.8789 C   0  0  0  0  0  0
  -45.2424   -2.0168   14.9369 C   0  0  0  0  0  0
  -50.4888   -4.1917   13.8698 C   0  0  0  0  0  0
  -49.9213    0.2152   22.0105 C   0  0  0  0  0  0
  -50.5010   -2.8297   22.5335 C   0  0  0  0  0  0
  -44.3620   -0.3086   19.6562 H   0  0  0  0  0  0
  -53.9561   -3.7725   17.4634 H   0  0  0  0  0  0
  -47.0780   -3.9106   13.4644 H   0  0  0  0  0  0
  -48.7255   -2.7732   12.4342 H   0  0  0  0  0  0
  -43.6517   -0.6036   17.2690 H   0  0  0  0  0  0
  -53.2521   -4.6407   15.3289 H   0  0  0  0  0  0
  1 23  1  0  0  0
  1 39  1  0  0  0
  2 24  1  0  0  0
  2 40  1  0  0  0
  3 27  1  0  0  0
  3 41  1  0  0  0
  4 28  1  0  0  0
  4 42  1  0  0  0
  5 31  1  0  0  0
  5 43  1  0  0  0
  6 32  1  0  0  0
  6 44  1  0  0  0
  7 29  2  0  0  0
  8 30  2  0  0  0
  9 10  1  0  0  0
  9 11  2  0  0  0
  9 13  1  0  0  0
 10 12  2  0  0  0
 10 14  1  0  0  0
 11 15  1  0  0  0
 11 19  1  0  0  0
 12 16  1  0  0  0
 12 20  1  0  0  0
 13 17  2  0  0  0
 13 21  1  0  0  0
 14 18  2  0  0  0
 14 22  1  0  0  0
 15 16  2  0  0  0
 15 25  1  0  0  0
 16 26  1  0  0  0
 17 18  1  0  0  0
 17 27  1  0  0  0
 18 28  1  0  0  0
 19 23  2  0  0  0
 19 29  1  0  0  0
 20 24  2  0  0  0
 20 30  1  0  0  0
 21 23  1  0  0  0
 21 31  2  0  0  0
 22 24  1  0  0  0
 22 32  2  0  0  0
 25 33  2  0  0  0
 25 37  1  0  0  0
 26 34  2  0  0  0
 26 38  1  0  0  0
 27 35  2  0  0  0
 28 36  2  0  0  0
 29 33  1  0  0  0
 30 34  1  0  0  0
 31 35  1  0  0  0
 32 36  1  0  0  0
M  END
>  <CHROM.0>
-173.72312926,-59.64553699,68.64717158

>  <CHROM.1>
19.70167626,36.74299116,-21.88197834,-84.21450736,-2.33152352,3.87740766
-48.86723908,-2.33756602,17.75655865,0.31242031,0.34872806,1.24119940

>  <Name>
3663

>  <PUBCHEM_ATOM_DEF_STEREO_COUNT>
0

>  <PUBCHEM_ATOM_UDEF_STEREO_COUNT>
0

>  <PUBCHEM_BOND_DEF_STEREO_COUNT>
0

>  <PUBCHEM_BOND_UDEF_STEREO_COUNT>
0

>  <PUBCHEM_CACTVS_TAUTO_COUNT>
991

>  <PUBCHEM_COMPONENT_COUNT>
1

>  <PUBCHEM_COMPOUND_CID>
3663

>  <PUBCHEM_CONFORMER_DIVERSEORDER>
2
1

>  <PUBCHEM_CONFORMER_ID>
00000E4F00000002

>  <PUBCHEM_CONFORMER_RMSD>
0.6

>  <PUBCHEM_COORDINATE_TYPE>
2
5
10

>  <PUBCHEM_EFFECTIVE_ROTOR_COUNT>
0

>  <PUBCHEM_FEATURE_SELFOVERLAP>
81.639

>  <PUBCHEM_HEAVY_ATOM_COUNT>
38

>  <PUBCHEM_ISOTOPIC_ATOM_COUNT>
0

>  <PUBCHEM_MMFF94_ENERGY>
199.63

>  <PUBCHEM_MMFF94_PARTIAL_CHARGES>
38
1 -0.53
15 0.03
16 0.03
19 0.09
2 -0.53
20 0.09
23 0.08
24 0.08
25 -0.17
26 -0.17
27 0.08
28 0.08
29 0.47
3 -0.53
30 0.47
31 0.08
32 0.08
33 -0.14
34 -0.14
35 -0.15
36 -0.15
37 0.14
38 0.14
39 0.15
4 -0.53
40 0.15
41 0.15
42 0.15
49 0.45
5 -0.53
50 0.45
51 0.45
52 0.45
53 0.45
54 0.45
6 -0.53
7 -0.57
8 -0.57

>  <PUBCHEM_PHARMACOPHORE_FEATURES>
16
1 1 donor
1 2 donor
1 3 donor
1 4 donor
1 5 donor
1 6 donor
1 7 acceptor
1 8 acceptor
6 10 12 14 20 22 24 rings
6 11 15 19 25 29 33 rings
6 12 16 20 26 30 34 rings
6 13 17 21 27 31 35 rings
6 14 18 22 28 32 36 rings
6 9 10 11 12 15 16 rings
6 9 10 13 14 17 18 rings
6 9 11 13 19 21 23 rings

>  <PUBCHEM_SHAPE_FINGERPRINT>
10675989 125 18194398016588665341
10967382 1 18410573980861784590
1100329 8 18338797788838864377
11513181 2 18202562856523954462
12788726 201 17902227051119725024
13140716 1 18411980234758873768
1361 2 17834393415430342929
138480 1 17617941335497513320
14117953 113 17978504230875699972
14295345 954 17473281881373637993
14790565 3 18410860961981475845
15320467 1 18194682806863435847
19591789 44 18410575088958364515
19930381 70 18337670939776099219
20028762 73 18056188077985354245
20764821 26 18337674122272798285
20775438 99 17406502308368123415
23559900 14 18339635629615806240
350125 39 18267024955406711448
3882209 13 17978467014948150279
463206 1 17761496193550011432

>  <PUBCHEM_SHAPE_MULTIPOLES>
735.07
8
7.97
0.74
0.18
0.01
0
-0.01
-0.01
0.69
0.01
-0.58
0
0.95

>  <PUBCHEM_SHAPE_SELFOVERLAP>
1773.472

>  <PUBCHEM_SHAPE_VOLUME>
357.3

>  <RI>
-4.35244e+08

>  <Rbt.Current_Directory>
/root/miniconda3/envs/rdock/share/rxdock-2013.1.1_148c5bd1-0/data/ligands/prepped_ligands/Hypericin

>  <Rbt.Executable>
rbdock/0.1.0

>  <Rbt.Library>
librxdock.so/0.1.0

>  <Rbt.Parameter_File>
/root/miniconda3/envs/rdock/share/rxdock-2013.1.1_148c5bd1-0/data/scripts/dock.prm

>  <Rbt.Receptor>
def.prm

>  <SCORE>
-12.7376

>  <SCORE.INTER>
-12.3157

>  <SCORE.INTER.CONST>
1

>  <SCORE.INTER.POLAR>
-2.03724

>  <SCORE.INTER.REPUL>
0.162938

>  <SCORE.INTER.ROT>
0

>  <SCORE.INTER.VDW>
-11.6038

>  <SCORE.INTER.norm>
-0.324097

>  <SCORE.INTRA>
-2.10974

>  <SCORE.INTRA.DIHEDRAL>
3.75189

>  <SCORE.INTRA.DIHEDRAL.0>
4.15609

>  <SCORE.INTRA.POLAR>
-0.752087

>  <SCORE.INTRA.POLAR.0>
-1.21242

>  <SCORE.INTRA.REPUL>
0

>  <SCORE.INTRA.REPUL.0>
0

>  <SCORE.INTRA.VDW>
-1.42859

>  <SCORE.INTRA.VDW.0>
2.93348

>  <SCORE.INTRA.norm>
-0.0555193

>  <SCORE.RESTR>
2.54656

>  <SCORE.RESTR.CAVITY>
2.54656

>  <SCORE.RESTR.norm>
0.0670146

>  <SCORE.SYSTEM>
-0.858721

>  <SCORE.SYSTEM.CONST>
0

>  <SCORE.SYSTEM.DIHEDRAL>
0.267142

>  <SCORE.SYSTEM.POLAR>
-0.015556

>  <SCORE.SYSTEM.VDW>
-0.939402

>  <SCORE.SYSTEM.norm>
-0.0225979

>  <SCORE.heavy>
38

>  <SCORE.norm>
-0.3352

$$$$
3663
  RxDock  02242101233D
librxdock.so/0.1.0
 44 51  0  0  0  0  0  0  0  0999 V2000
  -52.7831   -3.5154   16.9789 O   0  0  0  0  0  0
  -44.0816    0.0030   19.6610 O   0  0  0  0  0  0
  -50.8571   -2.1492   22.7767 O   0  0  0  0  0  0
  -49.0919   -0.9282   23.2974 O   0  0  0  0  0  0
  -53.5687   -3.4942   19.3673 O   0  0  0  0  0  0
  -44.8572    0.2048   22.0443 O   0  0  0  0  0  0
  -51.8413   -3.7443   14.6755 O   0  0  0  0  0  0
  -43.4779    0.0143   17.2363 O   0  0  0  0  0  0
  -49.0727   -2.0009   18.1584 C   0  0  0  0  0  0
  -47.8134   -1.5084   18.5473 C   0  0  0  0  0  0
  -49.3329   -2.2450   16.7865 C   0  0  0  0  0  0
  -46.7881   -1.3721   17.5781 C   0  0  0  0  0  0
  -50.0796   -2.2202   19.1370 C   0  0  0  0  0  0
  -47.5716   -1.1811   19.9090 C   0  0  0  0  0  0
  -48.3415   -1.9879   15.8039 C   0  0  0  0  0  0
  -47.0161   -1.7367   16.2257 C   0  0  0  0  0  0
  -49.8426   -1.9178   20.5037 C   0  0  0  0  0  0
  -48.5769   -1.3750   20.8924 C   0  0  0  0  0  0
  -50.5906   -2.7638   16.4355 C   0  0  0  0  0  0
  -45.5517   -0.8501   17.9944 C   0  0  0  0  0  0
  -51.3363   -2.7440   18.7328 C   0  0  0  0  0  0
  -46.3047   -0.6584   20.2816 C   0  0  0  0  0  0
  -51.5750   -3.0224   17.3883 C   0  0  0  0  0  0
  -45.3118   -0.4863   19.3188 C   0  0  0  0  0  0
  -48.8230   -1.8884   14.3917 C   0  0  0  0  0  0
  -45.7975   -1.9396   15.3828 C   0  0  0  0  0  0
  -50.8967   -2.1729   21.4161 C   0  0  0  0  0  0
  -48.2571   -1.0159   22.2256 C   0  0  0  0  0  0
  -50.8821   -3.0675   15.0203 C   0  0  0  0  0  0
  -44.4739   -0.6570   17.0039 C   0  0  0  0  0  0
  -52.3414   -2.9803   19.6743 C   0  0  0  0  0  0
  -46.0422   -0.3170   21.6107 C   0  0  0  0  0  0
  -49.9891   -2.4453   14.0268 C   0  0  0  0  0  0
  -44.6262   -1.3831   15.7308 C   0  0  0  0  0  0
  -52.1224   -2.6968   21.0116 C   0  0  0  0  0  0
  -47.0152   -0.4941   22.5796 C   0  0  0  0  0  0
  -48.1319   -1.0078   13.3870 C   0  0  0  0  0  0
  -45.7870   -2.9190   14.2413 C   0  0  0  0  0  0
  -53.4924   -3.2049   17.5625 H   0  0  0  0  0  0
  -44.1368    0.5404   20.4658 H   0  0  0  0  0  0
  -51.5857   -1.5837   23.0830 H   0  0  0  0  0  0
  -49.6475   -1.7181   23.4036 H   0  0  0  0  0  0
  -53.6747   -4.3712   19.7734 H   0  0  0  0  0  0
  -44.9214    0.4495   22.9830 H   0  0  0  0  0  0
  1 23  1  0  0  0
  1 39  1  0  0  0
  2 24  1  0  0  0
  2 40  1  0  0  0
  3 27  1  0  0  0
  3 41  1  0  0  0
  4 28  1  0  0  0
  4 42  1  0  0  0
  5 31  1  0  0  0
  5 43  1  0  0  0
  6 32  1  0  0  0
  6 44  1  0  0  0
  7 29  2  0  0  0
  8 30  2  0  0  0
  9 10  1  0  0  0
  9 11  2  0  0  0
  9 13  1  0  0  0
 10 12  2  0  0  0
 10 14  1  0  0  0
 11 15  1  0  0  0
 11 19  1  0  0  0
 12 16  1  0  0  0
 12 20  1  0  0  0
 13 17  2  0  0  0
 13 21  1  0  0  0
 14 18  2  0  0  0
 14 22  1  0  0  0
 15 16  2  0  0  0
 15 25  1  0  0  0
 16 26  1  0  0  0
 17 18  1  0  0  0
 17 27  1  0  0  0
 18 28  1  0  0  0
 19 23  2  0  0  0
 19 29  1  0  0  0
 20 24  2  0  0  0
 20 30  1  0  0  0
 21 23  1  0  0  0
 21 31  2  0  0  0
 22 24  1  0  0  0
 22 32  2  0  0  0
 25 33  2  0  0  0
 25 37  1  0  0  0
 26 34  2  0  0  0
 26 38  1  0  0  0
 27 35  2  0  0  0
 28 36  2  0  0  0
 29 33  1  0  0  0
 30 34  1  0  0  0
 31 35  1  0  0  0
 32 36  1  0  0  0
M  END
>  <CHROM.0>
-47.18129839,146.86417607,-43.85714106

>  <CHROM.1>
-148.52721124,156.81240294,128.69990934,49.62045274,114.29487460,174.38233688
-48.46298012,-1.75218885,18.40604190,-2.81640897,0.32741371,1.41370842

>  <Name>
3663

>  <PUBCHEM_ATOM_DEF_STEREO_COUNT>
0

>  <PUBCHEM_ATOM_UDEF_STEREO_COUNT>
0

>  <PUBCHEM_BOND_DEF_STEREO_COUNT>
0

>  <PUBCHEM_BOND_UDEF_STEREO_COUNT>
0

>  <PUBCHEM_CACTVS_TAUTO_COUNT>
991

>  <PUBCHEM_COMPONENT_COUNT>
1

>  <PUBCHEM_COMPOUND_CID>
3663

>  <PUBCHEM_CONFORMER_DIVERSEORDER>
2
1

>  <PUBCHEM_CONFORMER_ID>
00000E4F00000002

>  <PUBCHEM_CONFORMER_RMSD>
0.6

>  <PUBCHEM_COORDINATE_TYPE>
2
5
10

>  <PUBCHEM_EFFECTIVE_ROTOR_COUNT>
0

>  <PUBCHEM_FEATURE_SELFOVERLAP>
81.639

>  <PUBCHEM_HEAVY_ATOM_COUNT>
38

>  <PUBCHEM_ISOTOPIC_ATOM_COUNT>
0

>  <PUBCHEM_MMFF94_ENERGY>
199.63

>  <PUBCHEM_MMFF94_PARTIAL_CHARGES>
38
1 -0.53
15 0.03
16 0.03
19 0.09
2 -0.53
20 0.09
23 0.08
24 0.08
25 -0.17
26 -0.17
27 0.08
28 0.08
29 0.47
3 -0.53
30 0.47
31 0.08
32 0.08
33 -0.14
34 -0.14
35 -0.15
36 -0.15
37 0.14
38 0.14
39 0.15
4 -0.53
40 0.15
41 0.15
42 0.15
49 0.45
5 -0.53
50 0.45
51 0.45
52 0.45
53 0.45
54 0.45
6 -0.53
7 -0.57
8 -0.57

>  <PUBCHEM_PHARMACOPHORE_FEATURES>
16
1 1 donor
1 2 donor
1 3 donor
1 4 donor
1 5 donor
1 6 donor
1 7 acceptor
1 8 acceptor
6 10 12 14 20 22 24 rings
6 11 15 19 25 29 33 rings
6 12 16 20 26 30 34 rings
6 13 17 21 27 31 35 rings
6 14 18 22 28 32 36 rings
6 9 10 11 12 15 16 rings
6 9 10 13 14 17 18 rings
6 9 11 13 19 21 23 rings

>  <PUBCHEM_SHAPE_FINGERPRINT>
10675989 125 18194398016588665341
10967382 1 18410573980861784590
1100329 8 18338797788838864377
11513181 2 18202562856523954462
12788726 201 17902227051119725024
13140716 1 18411980234758873768
1361 2 17834393415430342929
138480 1 17617941335497513320
14117953 113 17978504230875699972
14295345 954 17473281881373637993
14790565 3 18410860961981475845
15320467 1 18194682806863435847
19591789 44 18410575088958364515
19930381 70 18337670939776099219
20028762 73 18056188077985354245
20764821 26 18337674122272798285
20775438 99 17406502308368123415
23559900 14 18339635629615806240
350125 39 18267024955406711448
3882209 13 17978467014948150279
463206 1 17761496193550011432

>  <PUBCHEM_SHAPE_MULTIPOLES>
735.07
8
7.97
0.74
0.18
0.01
0
-0.01
-0.01
0.69
0.01
-0.58
0
0.95

>  <PUBCHEM_SHAPE_SELFOVERLAP>
1773.472

>  <PUBCHEM_SHAPE_VOLUME>
357.3

>  <RI>
-4.35244e+08

>  <Rbt.Current_Directory>
/root/miniconda3/envs/rdock/share/rxdock-2013.1.1_148c5bd1-0/data/ligands/prepped_ligands/Hypericin

>  <Rbt.Executable>
rbdock/0.1.0

>  <Rbt.Library>
librxdock.so/0.1.0

>  <Rbt.Parameter_File>
/root/miniconda3/envs/rdock/share/rxdock-2013.1.1_148c5bd1-0/data/scripts/dock.prm

>  <Rbt.Receptor>
def.prm

>  <SCORE>
3.71347

>  <SCORE.INTER>
-3.09297

>  <SCORE.INTER.CONST>
1

>  <SCORE.INTER.POLAR>
-0.723242

>  <SCORE.INTER.REPUL>
0.883216

>  <SCORE.INTER.ROT>
0

>  <SCORE.INTER.VDW>
-10.45

>  <SCORE.INTER.norm>
-0.0813939

>  <SCORE.INTRA>
1.62465

>  <SCORE.INTRA.DIHEDRAL>
7.59354

>  <SCORE.INTRA.DIHEDRAL.0>
4.15609

>  <SCORE.INTRA.POLAR>
-0.155894

>  <SCORE.INTRA.POLAR.0>
-1.21242

>  <SCORE.INTRA.REPUL>
0

>  <SCORE.INTRA.REPUL.0>
0

>  <SCORE.INTRA.VDW>
-1.64208

>  <SCORE.INTRA.VDW.0>
2.93348

>  <SCORE.INTRA.norm>
0.0427539

>  <SCORE.RESTR>
3.43806

>  <SCORE.RESTR.CAVITY>
3.43806

>  <SCORE.RESTR.norm>
0.0904753

>  <SCORE.SYSTEM>
1.74373

>  <SCORE.SYSTEM.CONST>
0

>  <SCORE.SYSTEM.DIHEDRAL>
5.1642

>  <SCORE.SYSTEM.POLAR>
-0.0201226

>  <SCORE.SYSTEM.VDW>
-0.769953

>  <SCORE.SYSTEM.norm>
0.0458876

>  <SCORE.heavy>
38

>  <SCORE.norm>
0.097723

$$$$
3663
  RxDock  02242101233D
librxdock.so/0.1.0
 44 51  0  0  0  0  0  0  0  0999 V2000
  -44.4951   -0.5581   18.9725 O   0  0  0  0  0  0
  -53.2680   -4.2637   16.8290 O   0  0  0  0  0  0
  -46.3279   -3.1008   13.5534 O   0  0  0  0  0  0
  -48.4167   -3.4871   12.9488 O   0  0  0  0  0  0
  -43.6733   -1.0649   16.6509 O   0  0  0  0  0  0
  -52.5639   -4.6475   14.4458 O   0  0  0  0  0  0
  -45.3072   -0.3230   21.3242 O   0  0  0  0  0  0
  -53.9689   -3.6132   19.1375 O   0  0  0  0  0  0
  -48.2414   -2.1429   18.0206 C   0  0  0  0  0  0
  -49.5008   -2.6912   17.7160 C   0  0  0  0  0  0
  -48.0104   -1.5997   19.3094 C   0  0  0  0  0  0
  -50.4809   -2.7959   18.7347 C   0  0  0  0  0  0
  -47.2248   -2.1110   17.0280 C   0  0  0  0  0  0
  -49.7686   -3.1611   16.4017 C   0  0  0  0  0  0
  -49.0378   -1.5945   20.2885 C   0  0  0  0  0  0
  -50.2006   -2.3640   20.0571 C   0  0  0  0  0  0
  -47.4733   -2.5977   15.7177 C   0  0  0  0  0  0
  -48.7683   -3.1143   15.3955 C   0  0  0  0  0  0
  -46.7328   -1.0863   19.5898 C   0  0  0  0  0  0
  -51.7376   -3.3213   18.3898 C   0  0  0  0  0  0
  -45.9498   -1.5799   17.3588 C   0  0  0  0  0  0
  -51.0538   -3.6860   16.1020 C   0  0  0  0  0  0
  -45.7126   -1.0847   18.6397 C   0  0  0  0  0  0
  -52.0293   -3.7492   17.0954 C   0  0  0  0  0  0
  -48.8433   -0.6647   21.4434 C   0  0  0  0  0  0
  -51.1169   -2.8710   21.1248 C   0  0  0  0  0  0
  -46.4037   -2.5363   14.7899 C   0  0  0  0  0  0
  -49.1195   -3.5958   14.1096 C   0  0  0  0  0  0
  -46.4447   -0.5490   20.9345 C   0  0  0  0  0  0
  -52.7954   -3.4080   19.4162 C   0  0  0  0  0  0
  -44.9278   -1.5459   16.4066 C   0  0  0  0  0  0
  -51.3494   -4.1447   14.8158 C   0  0  0  0  0  0
  -47.6164   -0.2258   21.7678 C   0  0  0  0  0  0
  -52.3491   -3.3064   20.8169 C   0  0  0  0  0  0
  -45.1532   -2.0233   15.1268 C   0  0  0  0  0  0
  -50.3862   -4.0990   13.8225 C   0  0  0  0  0  0
  -50.0126   -0.0379   22.1520 C   0  0  0  0  0  0
  -50.6343   -3.0958   22.5315 C   0  0  0  0  0  0
  -44.6023    0.1838   19.5875 H   0  0  0  0  0  0
  -53.6127   -4.7455   17.5962 H   0  0  0  0  0  0
  -46.9386   -3.8566   13.5364 H   0  0  0  0  0  0
  -48.6841   -2.7163   12.4212 H   0  0  0  0  0  0
  -43.4635   -0.3479   16.0287 H   0  0  0  0  0  0
  -53.1780   -4.6304   15.1992 H   0  0  0  0  0  0
  1 23  1  0  0  0
  1 39  1  0  0  0
  2 24  1  0  0  0
  2 40  1  0  0  0
  3 27  1  0  0  0
  3 41  1  0  0  0
  4 28  1  0  0  0
  4 42  1  0  0  0
  5 31  1  0  0  0
  5 43  1  0  0  0
  6 32  1  0  0  0
  6 44  1  0  0  0
  7 29  2  0  0  0
  8 30  2  0  0  0
  9 10  1  0  0  0
  9 11  2  0  0  0
  9 13  1  0  0  0
 10 12  2  0  0  0
 10 14  1  0  0  0
 11 15  1  0  0  0
 11 19  1  0  0  0
 12 16  1  0  0  0
 12 20  1  0  0  0
 13 17  2  0  0  0
 13 21  1  0  0  0
 14 18  2  0  0  0
 14 22  1  0  0  0
 15 16  2  0  0  0
 15 25  1  0  0  0
 16 26  1  0  0  0
 17 18  1  0  0  0
 17 27  1  0  0  0
 18 28  1  0  0  0
 19 23  2  0  0  0
 19 29  1  0  0  0
 20 24  2  0  0  0
 20 30  1  0  0  0
 21 23  1  0  0  0
 21 31  2  0  0  0
 22 24  1  0  0  0
 22 32  2  0  0  0
 25 33  2  0  0  0
 25 37  1  0  0  0
 26 34  2  0  0  0
 26 38  1  0  0  0
 27 35  2  0  0  0
 28 36  2  0  0  0
 29 33  1  0  0  0
 30 34  1  0  0  0
 31 35  1  0  0  0
 32 36  1  0  0  0
M  END
>  <CHROM.0>
73.50902847,61.61102673,67.74312357

>  <CHROM.1>
-33.48983378,-33.63124726,-23.95574684,-94.24868299,-122.63284183,0.40062957
-48.85962895,-2.42351859,17.82384639,0.32001429,0.33404200,1.27352877

>  <Name>
3663

>  <PUBCHEM_ATOM_DEF_STEREO_COUNT>
0

>  <PUBCHEM_ATOM_UDEF_STEREO_COUNT>
0

>  <PUBCHEM_BOND_DEF_STEREO_COUNT>
0

>  <PUBCHEM_BOND_UDEF_STEREO_COUNT>
0

>  <PUBCHEM_CACTVS_TAUTO_COUNT>
991

>  <PUBCHEM_COMPONENT_COUNT>
1

>  <PUBCHEM_COMPOUND_CID>
3663

>  <PUBCHEM_CONFORMER_DIVERSEORDER>
2
1

>  <PUBCHEM_CONFORMER_ID>
00000E4F00000002

>  <PUBCHEM_CONFORMER_RMSD>
0.6

>  <PUBCHEM_COORDINATE_TYPE>
2
5
10

>  <PUBCHEM_EFFECTIVE_ROTOR_COUNT>
0

>  <PUBCHEM_FEATURE_SELFOVERLAP>
81.639

>  <PUBCHEM_HEAVY_ATOM_COUNT>
38

>  <PUBCHEM_ISOTOPIC_ATOM_COUNT>
0

>  <PUBCHEM_MMFF94_ENERGY>
199.63

>  <PUBCHEM_MMFF94_PARTIAL_CHARGES>
38
1 -0.53
15 0.03
16 0.03
19 0.09
2 -0.53
20 0.09
23 0.08
24 0.08
25 -0.17
26 -0.17
27 0.08
28 0.08
29 0.47
3 -0.53
30 0.47
31 0.08
32 0.08
33 -0.14
34 -0.14
35 -0.15
36 -0.15
37 0.14
38 0.14
39 0.15
4 -0.53
40 0.15
41 0.15
42 0.15
49 0.45
5 -0.53
50 0.45
51 0.45
52 0.45
53 0.45
54 0.45
6 -0.53
7 -0.57
8 -0.57

>  <PUBCHEM_PHARMACOPHORE_FEATURES>
16
1 1 donor
1 2 donor
1 3 donor
1 4 donor
1 5 donor
1 6 donor
1 7 acceptor
1 8 acceptor
6 10 12 14 20 22 24 rings
6 11 15 19 25 29 33 rings
6 12 16 20 26 30 34 rings
6 13 17 21 27 31 35 rings
6 14 18 22 28 32 36 rings
6 9 10 11 12 15 16 rings
6 9 10 13 14 17 18 rings
6 9 11 13 19 21 23 rings

>  <PUBCHEM_SHAPE_FINGERPRINT>
10675989 125 18194398016588665341
10967382 1 18410573980861784590
1100329 8 18338797788838864377
11513181 2 18202562856523954462
12788726 201 17902227051119725024
13140716 1 18411980234758873768
1361 2 17834393415430342929
138480 1 17617941335497513320
14117953 113 17978504230875699972
14295345 954 17473281881373637993
14790565 3 18410860961981475845
15320467 1 18194682806863435847
19591789 44 18410575088958364515
19930381 70 18337670939776099219
20028762 73 18056188077985354245
20764821 26 18337674122272798285
20775438 99 17406502308368123415
23559900 14 18339635629615806240
350125 39 18267024955406711448
3882209 13 17978467014948150279
463206 1 17761496193550011432

>  <PUBCHEM_SHAPE_MULTIPOLES>
735.07
8
7.97
0.74
0.18
0.01
0
-0.01
-0.01
0.69
0.01
-0.58
0
0.95

>  <PUBCHEM_SHAPE_SELFOVERLAP>
1773.472

>  <PUBCHEM_SHAPE_VOLUME>
357.3

>  <RI>
-4.35244e+08

>  <Rbt.Current_Directory>
/root/miniconda3/envs/rdock/share/rxdock-2013.1.1_148c5bd1-0/data/ligands/prepped_ligands/Hypericin

>  <Rbt.Executable>
rbdock/0.1.0

>  <Rbt.Library>
librxdock.so/0.1.0

>  <Rbt.Parameter_File>
/root/miniconda3/envs/rdock/share/rxdock-2013.1.1_148c5bd1-0/data/scripts/dock.prm

>  <Rbt.Receptor>
def.prm

>  <SCORE>
-6.68107

>  <SCORE.INTER>
-11.0578

>  <SCORE.INTER.CONST>
1

>  <SCORE.INTER.POLAR>
-1.66927

>  <SCORE.INTER.REPUL>
0.184564

>  <SCORE.INTER.ROT>
0

>  <SCORE.INTER.VDW>
-11.705

>  <SCORE.INTER.norm>
-0.290993

>  <SCORE.INTRA>
2.30659

>  <SCORE.INTRA.DIHEDRAL>
8.10347

>  <SCORE.INTRA.DIHEDRAL.0>
4.15609

>  <SCORE.INTRA.POLAR>
0.106126

>  <SCORE.INTRA.POLAR.0>
-1.21242

>  <SCORE.INTRA.REPUL>
0

>  <SCORE.INTRA.REPUL.0>
0

>  <SCORE.INTRA.VDW>
-2.10598

>  <SCORE.INTRA.VDW.0>
2.93348

>  <SCORE.INTRA.norm>
0.0606997

>  <SCORE.RESTR>
2.6627

>  <SCORE.RESTR.CAVITY>
2.6627

>  <SCORE.RESTR.norm>
0.070071

>  <SCORE.SYSTEM>
-0.592608

>  <SCORE.SYSTEM.CONST>
0

>  <SCORE.SYSTEM.DIHEDRAL>
0.575396

>  <SCORE.SYSTEM.POLAR>
-0.0146238

>  <SCORE.SYSTEM.VDW>
-0.830585

>  <SCORE.SYSTEM.norm>
-0.0155949

>  <SCORE.heavy>
38

>  <SCORE.norm>
-0.175818

$$$$
3663
  RxDock  02242101233D
librxdock.so/0.1.0
 44 51  0  0  0  0  0  0  0  0999 V2000
  -50.5685   -3.0297   15.1435 O   0  0  0  0  0  0
  -43.8870   -0.1527   21.6527 O   0  0  0  0  0  0
  -44.4017   -2.4277   14.2496 O   0  0  0  0  0  0
  -42.8782   -2.2415   15.8378 O   0  0  0  0  0  0
  -48.7865   -3.3397   13.3969 O   0  0  0  0  0  0
  -42.0390   -0.5976   20.0067 O   0  0  0  0  0  0
  -52.2992   -2.4539   16.8517 O   0  0  0  0  0  0
  -45.7523    0.0162   23.3068 O   0  0  0  0  0  0
  -47.6834   -1.8111   17.9081 C   0  0  0  0  0  0
  -46.7220   -1.3816   18.8413 C   0  0  0  0  0  0
  -49.0441   -1.8939   18.2965 C   0  0  0  0  0  0
  -47.1418   -0.9302   20.1177 C   0  0  0  0  0  0
  -47.2797   -2.1857   16.5980 C   0  0  0  0  0  0
  -45.3456   -1.3760   18.4873 C   0  0  0  0  0  0
  -49.4427   -1.5587   19.6168 C   0  0  0  0  0  0
  -48.5191   -0.8975   20.4580 C   0  0  0  0  0  0
  -45.9100   -2.1632   16.2255 C   0  0  0  0  0  0
  -44.9278   -1.7690   17.1887 C   0  0  0  0  0  0
  -49.9822   -2.2988   17.3319 C   0  0  0  0  0  0
  -46.1540   -0.5358   21.0360 C   0  0  0  0  0  0
  -48.2650   -2.5904   15.6586 C   0  0  0  0  0  0
  -44.3843   -0.9667   19.4493 C   0  0  0  0  0  0
  -49.6074   -2.6308   16.0308 C   0  0  0  0  0  0
  -44.7969   -0.5628   20.7178 C   0  0  0  0  0  0
  -50.7889   -2.0501   20.0440 C   0  0  0  0  0  0
  -48.8881   -0.0512   21.6346 C   0  0  0  0  0  0
  -45.5931   -2.5444   14.8978 C   0  0  0  0  0  0
  -43.5366   -1.7420   16.9196 C   0  0  0  0  0  0
  -51.4134   -2.3580   17.6902 C   0  0  0  0  0  0
  -46.5525   -0.0977   22.3885 C   0  0  0  0  0  0
  -47.8989   -2.9535   14.3599 C   0  0  0  0  0  0
  -43.0234   -0.9619   19.1333 C   0  0  0  0  0  0
  -51.7206   -2.3695   19.1314 C   0  0  0  0  0  0
  -47.9692    0.2704   22.5592 C   0  0  0  0  0  0
  -46.5677   -2.9298   13.9801 C   0  0  0  0  0  0
  -42.6005   -1.3490   17.8732 C   0  0  0  0  0  0
  -51.0812   -2.3894   21.4799 C   0  0  0  0  0  0
  -50.2280    0.6261   21.7249 C   0  0  0  0  0  0
  -50.1861   -3.1536   14.2611 H   0  0  0  0  0  0
  -44.3235    0.3391   22.3650 H   0  0  0  0  0  0
  -44.5025   -1.7418   13.5686 H   0  0  0  0  0  0
  -42.8297   -3.2119   15.8456 H   0  0  0  0  0  0
  -48.4112   -4.0639   12.8676 H   0  0  0  0  0  0
  -42.4271   -0.3235   20.8549 H   0  0  0  0  0  0
  1 23  1  0  0  0
  1 39  1  0  0  0
  2 24  1  0  0  0
  2 40  1  0  0  0
  3 27  1  0  0  0
  3 41  1  0  0  0
  4 28  1  0  0  0
  4 42  1  0  0  0
  5 31  1  0  0  0
  5 43  1  0  0  0
  6 32  1  0  0  0
  6 44  1  0  0  0
  7 29  2  0  0  0
  8 30  2  0  0  0
  9 10  1  0  0  0
  9 11  2  0  0  0
  9 13  1  0  0  0
 10 12  2  0  0  0
 10 14  1  0  0  0
 11 15  1  0  0  0
 11 19  1  0  0  0
 12 16  1  0  0  0
 12 20  1  0  0  0
 13 17  2  0  0  0
 13 21  1  0  0  0
 14 18  2  0  0  0
 14 22  1  0  0  0
 15 16  2  0  0  0
 15 25  1  0  0  0
 16 26  1  0  0  0
 17 18  1  0  0  0
 17 27  1  0  0  0
 18 28  1  0  0  0
 19 23  2  0  0  0
 19 29  1  0  0  0
 20 24  2  0  0  0
 20 30  1  0  0  0
 21 23  1  0  0  0
 21 31  2  0  0  0
 22 24  1  0  0  0
 22 32  2  0  0  0
 25 33  2  0  0  0
 25 37  1  0  0  0
 26 34  2  0  0  0
 26 38  1  0  0  0
 27 35  2  0  0  0
 28 36  2  0  0  0
 29 33  1  0  0  0
 30 34  1  0  0  0
 31 35  1  0  0  0
 32 36  1  0  0  0
M  END
>  <CHROM.0>
-159.46707775,-59.67072992,55.76685467

>  <CHROM.1>
175.01153820,-15.29230074,-109.97431901,-73.24112538,-141.39273864,-1.63006301
-47.16717533,-1.60484894,18.34039675,2.27552156,-0.10662197,-1.90150746

>  <Name>
3663

>  <PUBCHEM_ATOM_DEF_STEREO_COUNT>
0

>  <PUBCHEM_ATOM_UDEF_STEREO_COUNT>
0

>  <PUBCHEM_BOND_DEF_STEREO_COUNT>
0

>  <PUBCHEM_BOND_UDEF_STEREO_COUNT>
0

>  <PUBCHEM_CACTVS_TAUTO_COUNT>
991

>  <PUBCHEM_COMPONENT_COUNT>
1

>  <PUBCHEM_COMPOUND_CID>
3663

>  <PUBCHEM_CONFORMER_DIVERSEORDER>
2
1

>  <PUBCHEM_CONFORMER_ID>
00000E4F00000002

>  <PUBCHEM_CONFORMER_RMSD>
0.6

>  <PUBCHEM_COORDINATE_TYPE>
2
5
10

>  <PUBCHEM_EFFECTIVE_ROTOR_COUNT>
0

>  <PUBCHEM_FEATURE_SELFOVERLAP>
81.639

>  <PUBCHEM_HEAVY_ATOM_COUNT>
38

>  <PUBCHEM_ISOTOPIC_ATOM_COUNT>
0

>  <PUBCHEM_MMFF94_ENERGY>
199.63

>  <PUBCHEM_MMFF94_PARTIAL_CHARGES>
38
1 -0.53
15 0.03
16 0.03
19 0.09
2 -0.53
20 0.09
23 0.08
24 0.08
25 -0.17
26 -0.17
27 0.08
28 0.08
29 0.47
3 -0.53
30 0.47
31 0.08
32 0.08
33 -0.14
34 -0.14
35 -0.15
36 -0.15
37 0.14
38 0.14
39 0.15
4 -0.53
40 0.15
41 0.15
42 0.15
49 0.45
5 -0.53
50 0.45
51 0.45
52 0.45
53 0.45
54 0.45
6 -0.53
7 -0.57
8 -0.57

>  <PUBCHEM_PHARMACOPHORE_FEATURES>
16
1 1 donor
1 2 donor
1 3 donor
1 4 donor
1 5 donor
1 6 donor
1 7 acceptor
1 8 acceptor
6 10 12 14 20 22 24 rings
6 11 15 19 25 29 33 rings
6 12 16 20 26 30 34 rings
6 13 17 21 27 31 35 rings
6 14 18 22 28 32 36 rings
6 9 10 11 12 15 16 rings
6 9 10 13 14 17 18 rings
6 9 11 13 19 21 23 rings

>  <PUBCHEM_SHAPE_FINGERPRINT>
10675989 125 18194398016588665341
10967382 1 18410573980861784590
1100329 8 18338797788838864377
11513181 2 18202562856523954462
12788726 201 17902227051119725024
13140716 1 18411980234758873768
1361 2 17834393415430342929
138480 1 17617941335497513320
14117953 113 17978504230875699972
14295345 954 17473281881373637993
14790565 3 18410860961981475845
15320467 1 18194682806863435847
19591789 44 18410575088958364515
19930381 70 18337670939776099219
20028762 73 18056188077985354245
20764821 26 18337674122272798285
20775438 99 17406502308368123415
23559900 14 18339635629615806240
350125 39 18267024955406711448
3882209 13 17978467014948150279
463206 1 17761496193550011432

>  <PUBCHEM_SHAPE_MULTIPOLES>
735.07
8
7.97
0.74
0.18
0.01
0
-0.01
-0.01
0.69
0.01
-0.58
0
0.95

>  <PUBCHEM_SHAPE_SELFOVERLAP>
1773.472

>  <PUBCHEM_SHAPE_VOLUME>
357.3

>  <RI>
-4.35244e+08

>  <Rbt.Current_Directory>
/root/miniconda3/envs/rdock/share/rxdock-2013.1.1_148c5bd1-0/data/ligands/prepped_ligands/Hypericin

>  <Rbt.Executable>
rbdock/0.1.0

>  <Rbt.Library>
librxdock.so/0.1.0

>  <Rbt.Parameter_File>
/root/miniconda3/envs/rdock/share/rxdock-2013.1.1_148c5bd1-0/data/scripts/dock.prm

>  <Rbt.Receptor>
def.prm

>  <SCORE>
-11.1254

>  <SCORE.INTER>
-13.9086

>  <SCORE.INTER.CONST>
1

>  <SCORE.INTER.POLAR>
-1.19742

>  <SCORE.INTER.REPUL>
0

>  <SCORE.INTER.ROT>
0

>  <SCORE.INTER.VDW>
-15.2374

>  <SCORE.INTER.norm>
-0.366016

>  <SCORE.INTRA>
0.150972

>  <SCORE.INTRA.DIHEDRAL>
6.66827

>  <SCORE.INTRA.DIHEDRAL.0>
4.15609

>  <SCORE.INTRA.POLAR>
-0.5453

>  <SCORE.INTRA.POLAR.0>
-1.21242

>  <SCORE.INTRA.REPUL>
0

>  <SCORE.INTRA.REPUL.0>
0

>  <SCORE.INTRA.VDW>
-1.32914

>  <SCORE.INTRA.VDW.0>
2.93348

>  <SCORE.INTRA.norm>
0.00397296

>  <SCORE.RESTR>
3.05154

>  <SCORE.RESTR.CAVITY>
3.05154

>  <SCORE.RESTR.norm>
0.0803036

>  <SCORE.SYSTEM>
-0.419289

>  <SCORE.SYSTEM.CONST>
0

>  <SCORE.SYSTEM.DIHEDRAL>
0.97957

>  <SCORE.SYSTEM.VDW>
-0.909074

>  <SCORE.SYSTEM.norm>
-0.0110339

>  <SCORE.heavy>
38

>  <SCORE.norm>
-0.292773

$$$$
