3663
  RxDock  02242110593D
librxdock.so/0.1.0
 44 51  0  0  0  0  0  0  0  0999 V2000
  -47.3640   -0.1052   21.5350 O   0  0  0  0  0  0
  -50.9621   -5.4580   14.2077 O   0  0  0  0  0  0
  -45.8573    0.2513   15.4692 O   0  0  0  0  0  0
  -47.0093   -0.6205   13.7986 O   0  0  0  0  0  0
  -45.9088    1.1753   19.9334 O   0  0  0  0  0  0
  -49.6580   -4.1092   12.5336 O   0  0  0  0  0  0
  -48.6454   -1.5901   23.0835 O   0  0  0  0  0  0
  -52.4172   -6.5758   15.9039 O   0  0  0  0  0  0
  -48.8906   -2.3727   18.3759 C   0  0  0  0  0  0
  -49.3974   -3.1544   17.3215 C   0  0  0  0  0  0
  -49.3603   -2.5922   19.6952 C   0  0  0  0  0  0
  -50.2827   -4.2235   17.6089 C   0  0  0  0  0  0
  -47.9380   -1.3531   18.1061 C   0  0  0  0  0  0
  -48.9959   -2.8854   15.9850 C   0  0  0  0  0  0
  -50.3416   -3.5828   19.9597 C   0  0  0  0  0  0
  -50.6528   -4.5183   18.9468 C   0  0  0  0  0  0
  -47.5124   -1.0896   16.7777 C   0  0  0  0  0  0
  -48.0616   -1.8551   15.7006 C   0  0  0  0  0  0
  -48.8123   -1.8138   20.7287 C   0  0  0  0  0  0
  -50.7930   -4.9658   16.5304 C   0  0  0  0  0  0
  -47.4147   -0.5910   19.1843 C   0  0  0  0  0  0
  -49.5377   -3.6647   14.9285 C   0  0  0  0  0  0
  -47.8474   -0.8373   20.4859 C   0  0  0  0  0  0
  -50.4403   -4.6886   15.2104 C   0  0  0  0  0  0
  -51.0545   -3.4716   21.2695 C   0  0  0  0  0  0
  -51.2453   -5.8707   19.1847 C   0  0  0  0  0  0
  -46.5543   -0.0611   16.5961 C   0  0  0  0  0  0
  -47.7204   -1.6469   14.3408 C   0  0  0  0  0  0
  -49.2491   -2.0427   22.1205 C   0  0  0  0  0  0
  -51.7486   -6.0610   16.7898 C   0  0  0  0  0  0
  -46.4686    0.4103   18.9506 C   0  0  0  0  0  0
  -49.1700   -3.4155   13.6038 C   0  0  0  0  0  0
  -50.5063   -2.7926   22.2900 C   0  0  0  0  0  0
  -51.8035   -6.5586   18.1757 C   0  0  0  0  0  0
  -46.0389    0.6740   17.6612 C   0  0  0  0  0  0
  -48.2652   -2.4096   13.3105 C   0  0  0  0  0  0
  -52.4755   -3.9372   21.4316 C   0  0  0  0  0  0
  -51.0664   -6.5865   20.4953 C   0  0  0  0  0  0
  -47.5007   -0.5774   22.3707 H   0  0  0  0  0  0
  -51.1654   -6.3498   14.5286 H   0  0  0  0  0  0
  -44.9565   -0.0983   15.5733 H   0  0  0  0  0  0
  -46.1025   -0.5711   14.1441 H   0  0  0  0  0  0
  -45.0340    1.4929   19.6520 H   0  0  0  0  0  0
  -50.0061   -4.9700   12.8218 H   0  0  0  0  0  0
  1 23  1  0  0  0
  1 39  1  0  0  0
  2 24  1  0  0  0
  2 40  1  0  0  0
  3 27  1  0  0  0
  3 41  1  0  0  0
  4 28  1  0  0  0
  4 42  1  0  0  0
  5 31  1  0  0  0
  5 43  1  0  0  0
  6 32  1  0  0  0
  6 44  1  0  0  0
  7 29  2  0  0  0
  8 30  2  0  0  0
  9 10  1  0  0  0
  9 11  2  0  0  0
  9 13  1  0  0  0
 10 12  2  0  0  0
 10 14  1  0  0  0
 11 15  1  0  0  0
 11 19  1  0  0  0
 12 16  1  0  0  0
 12 20  1  0  0  0
 13 17  2  0  0  0
 13 21  1  0  0  0
 14 18  2  0  0  0
 14 22  1  0  0  0
 15 16  2  0  0  0
 15 25  1  0  0  0
 16 26  1  0  0  0
 17 18  1  0  0  0
 17 27  1  0  0  0
 18 28  1  0  0  0
 19 23  2  0  0  0
 19 29  1  0  0  0
 20 24  2  0  0  0
 20 30  1  0  0  0
 21 23  1  0  0  0
 21 31  2  0  0  0
 22 24  1  0  0  0
 22 32  2  0  0  0
 25 33  2  0  0  0
 25 37  1  0  0  0
 26 34  2  0  0  0
 26 38  1  0  0  0
 27 35  2  0  0  0
 28 36  2  0  0  0
 29 33  1  0  0  0
 30 34  1  0  0  0
 31 35  1  0  0  0
 32 36  1  0  0  0
M  END
>  <CHROM.0>
179.21912993,178.46898419,-67.78622588

>  <CHROM.1>
21.92354805,-27.94074562,-102.66522610,61.44772009,153.94952331,-21.14420359
-49.11313429,-2.74183039,17.81964857,0.95961753,0.85142360,1.39057809

>  <Name>
3663

>  <PUBCHEM_ATOM_DEF_STEREO_COUNT>
0

>  <PUBCHEM_ATOM_UDEF_STEREO_COUNT>
0

>  <PUBCHEM_BOND_DEF_STEREO_COUNT>
0

>  <PUBCHEM_BOND_UDEF_STEREO_COUNT>
0

>  <PUBCHEM_CACTVS_TAUTO_COUNT>
991

>  <PUBCHEM_COMPONENT_COUNT>
1

>  <PUBCHEM_COMPOUND_CID>
3663

>  <PUBCHEM_CONFORMER_DIVERSEORDER>
2
1

>  <PUBCHEM_CONFORMER_ID>
00000E4F00000002

>  <PUBCHEM_CONFORMER_RMSD>
0.6

>  <PUBCHEM_COORDINATE_TYPE>
2
5
10

>  <PUBCHEM_EFFECTIVE_ROTOR_COUNT>
0

>  <PUBCHEM_FEATURE_SELFOVERLAP>
81.639

>  <PUBCHEM_HEAVY_ATOM_COUNT>
38

>  <PUBCHEM_ISOTOPIC_ATOM_COUNT>
0

>  <PUBCHEM_MMFF94_ENERGY>
199.63

>  <PUBCHEM_MMFF94_PARTIAL_CHARGES>
38
1 -0.53
15 0.03
16 0.03
19 0.09
2 -0.53
20 0.09
23 0.08
24 0.08
25 -0.17
26 -0.17
27 0.08
28 0.08
29 0.47
3 -0.53
30 0.47
31 0.08
32 0.08
33 -0.14
34 -0.14
35 -0.15
36 -0.15
37 0.14
38 0.14
39 0.15
4 -0.53
40 0.15
41 0.15
42 0.15
49 0.45
5 -0.53
50 0.45
51 0.45
52 0.45
53 0.45
54 0.45
6 -0.53
7 -0.57
8 -0.57

>  <PUBCHEM_PHARMACOPHORE_FEATURES>
16
1 1 donor
1 2 donor
1 3 donor
1 4 donor
1 5 donor
1 6 donor
1 7 acceptor
1 8 acceptor
6 10 12 14 20 22 24 rings
6 11 15 19 25 29 33 rings
6 12 16 20 26 30 34 rings
6 13 17 21 27 31 35 rings
6 14 18 22 28 32 36 rings
6 9 10 11 12 15 16 rings
6 9 10 13 14 17 18 rings
6 9 11 13 19 21 23 rings

>  <PUBCHEM_SHAPE_FINGERPRINT>
10675989 125 18194398016588665341
10967382 1 18410573980861784590
1100329 8 18338797788838864377
11513181 2 18202562856523954462
12788726 201 17902227051119725024
13140716 1 18411980234758873768
1361 2 17834393415430342929
138480 1 17617941335497513320
14117953 113 17978504230875699972
14295345 954 17473281881373637993
14790565 3 18410860961981475845
15320467 1 18194682806863435847
19591789 44 18410575088958364515
19930381 70 18337670939776099219
20028762 73 18056188077985354245
20764821 26 18337674122272798285
20775438 99 17406502308368123415
23559900 14 18339635629615806240
350125 39 18267024955406711448
3882209 13 17978467014948150279
463206 1 17761496193550011432

>  <PUBCHEM_SHAPE_MULTIPOLES>
735.07
8
7.97
0.74
0.18
0.01
0
-0.01
-0.01
0.69
0.01
-0.58
0
0.95

>  <PUBCHEM_SHAPE_SELFOVERLAP>
1773.472

>  <PUBCHEM_SHAPE_VOLUME>
357.3

>  <RI>
-2.21457e+08

>  <Rbt.Current_Directory>
/root/miniconda3/envs/rdock/share/rxdock-2013.1.1_148c5bd1-0/data/ligands/prepped_ligands/Hypericin

>  <Rbt.Executable>
rbdock/0.1.0

>  <Rbt.Library>
librxdock.so/0.1.0

>  <Rbt.Parameter_File>
/root/miniconda3/envs/rdock/share/rxdock-2013.1.1_148c5bd1-0/data/scripts/dock.prm

>  <Rbt.Receptor>
def.prm

>  <SCORE>
-4.21325

>  <SCORE.INTER>
-9.55065

>  <SCORE.INTER.CONST>
1

>  <SCORE.INTER.POLAR>
-0.466517

>  <SCORE.INTER.REPUL>
0.175831

>  <SCORE.INTER.ROT>
0

>  <SCORE.INTER.VDW>
-14.2437

>  <SCORE.INTER.norm>
-0.251333

>  <SCORE.INTRA>
3.18202

>  <SCORE.INTRA.DIHEDRAL>
6.83258

>  <SCORE.INTRA.DIHEDRAL.0>
4.15609

>  <SCORE.INTRA.POLAR>
0.274433

>  <SCORE.INTRA.POLAR.0>
-1.21242

>  <SCORE.INTRA.REPUL>
0.0292395

>  <SCORE.INTRA.REPUL.0>
0

>  <SCORE.INTRA.VDW>
-1.31354

>  <SCORE.INTRA.VDW.0>
2.93348

>  <SCORE.INTRA.norm>
0.0837375

>  <SCORE.RESTR>
3.17072

>  <SCORE.RESTR.CAVITY>
3.17072

>  <SCORE.RESTR.norm>
0.0834401

>  <SCORE.SYSTEM>
-1.01534

>  <SCORE.SYSTEM.CONST>
0

>  <SCORE.SYSTEM.DIHEDRAL>
0.167537

>  <SCORE.SYSTEM.VDW>
-1.09911

>  <SCORE.SYSTEM.norm>
-0.0267196

>  <SCORE.heavy>
38

>  <SCORE.norm>
-0.110875

$$$$
3663
  RxDock  02242111003D
librxdock.so/0.1.0
 44 51  0  0  0  0  0  0  0  0999 V2000
  -46.1301   -6.6524   18.8443 O   0  0  0  0  0  0
  -53.7792   -2.9864   14.0130 O   0  0  0  0  0  0
  -51.8759   -9.0981   18.4029 O   0  0  0  0  0  0
  -53.4216   -8.5094   16.9393 O   0  0  0  0  0  0
  -47.4891   -8.6436   19.5584 O   0  0  0  0  0  0
  -55.1448   -5.0274   14.5533 O   0  0  0  0  0  0
  -44.9306   -4.5269   18.3071 O   0  0  0  0  0  0
  -52.2782   -1.1186   13.3043 O   0  0  0  0  0  0
  -49.4199   -5.1150   16.7789 C   0  0  0  0  0  0
  -50.5271   -4.5793   16.0956 C   0  0  0  0  0  0
  -48.1854   -4.4185   16.7609 C   0  0  0  0  0  0
  -50.4243   -3.2987   15.4968 C   0  0  0  0  0  0
  -49.5396   -6.3600   17.4536 C   0  0  0  0  0  0
  -51.7440   -5.3111   16.0372 C   0  0  0  0  0  0
  -48.0538   -3.1951   16.0535 C   0  0  0  0  0  0
  -49.2224   -2.5498   15.5890 C   0  0  0  0  0  0
  -50.7567   -7.0899   17.4210 C   0  0  0  0  0  0
  -51.8690   -6.5662   16.6887 C   0  0  0  0  0  0
  -47.1080   -4.9665   17.4772 C   0  0  0  0  0  0
  -51.5390   -2.8059   14.7975 C   0  0  0  0  0  0
  -48.4214   -6.8743   18.1623 C   0  0  0  0  0  0
  -52.8440   -4.7702   15.3199 C   0  0  0  0  0  0
  -47.2209   -6.1666   18.1777 C   0  0  0  0  0  0
  -52.7266   -3.5292   14.6967 C   0  0  0  0  0  0
  -46.6567   -2.7522   15.7564 C   0  0  0  0  0  0
  -49.3313   -1.0882   15.2915 C   0  0  0  0  0  0
  -50.7945   -8.3189   18.1260 C   0  0  0  0  0  0
  -53.1138   -7.2343   16.5749 C   0  0  0  0  0  0
  -45.8188   -4.2477   17.5133 C   0  0  0  0  0  0
  -51.4542   -1.4929   14.1275 C   0  0  0  0  0  0
  -48.5130   -8.0905   18.8441 C   0  0  0  0  0  0
  -54.0491   -5.4723   15.2358 C   0  0  0  0  0  0
  -45.6254   -3.2119   16.4832 C   0  0  0  0  0  0
  -50.3528   -0.6146   14.5601 C   0  0  0  0  0  0
  -49.6957   -8.8101   18.8271 C   0  0  0  0  0  0
  -54.1836   -6.7006   15.8603 C   0  0  0  0  0  0
  -46.3336   -1.9446   14.5294 C   0  0  0  0  0  0
  -48.4288   -0.0833   15.9531 C   0  0  0  0  0  0
  -45.5747   -7.1791   18.2491 H   0  0  0  0  0  0
  -53.4663   -2.3770   13.3272 H   0  0  0  0  0  0
  -52.2417   -8.8032   19.2536 H   0  0  0  0  0  0
  -53.2384   -9.1534   16.2352 H   0  0  0  0  0  0
  -47.2019   -9.4741   19.1423 H   0  0  0  0  0  0
  -54.8734   -4.6071   13.7197 H   0  0  0  0  0  0
  1 23  1  0  0  0
  1 39  1  0  0  0
  2 24  1  0  0  0
  2 40  1  0  0  0
  3 27  1  0  0  0
  3 41  1  0  0  0
  4 28  1  0  0  0
  4 42  1  0  0  0
  5 31  1  0  0  0
  5 43  1  0  0  0
  6 32  1  0  0  0
  6 44  1  0  0  0
  7 29  2  0  0  0
  8 30  2  0  0  0
  9 10  1  0  0  0
  9 11  2  0  0  0
  9 13  1  0  0  0
 10 12  2  0  0  0
 10 14  1  0  0  0
 11 15  1  0  0  0
 11 19  1  0  0  0
 12 16  1  0  0  0
 12 20  1  0  0  0
 13 17  2  0  0  0
 13 21  1  0  0  0
 14 18  2  0  0  0
 14 22  1  0  0  0
 15 16  2  0  0  0
 15 25  1  0  0  0
 16 26  1  0  0  0
 17 18  1  0  0  0
 17 27  1  0  0  0
 18 28  1  0  0  0
 19 23  2  0  0  0
 19 29  1  0  0  0
 20 24  2  0  0  0
 20 30  1  0  0  0
 21 23  1  0  0  0
 21 31  2  0  0  0
 22 24  1  0  0  0
 22 32  2  0  0  0
 25 33  2  0  0  0
 25 37  1  0  0  0
 26 34  2  0  0  0
 26 38  1  0  0  0
 27 35  2  0  0  0
 28 36  2  0  0  0
 29 33  1  0  0  0
 30 34  1  0  0  0
 31 35  1  0  0  0
 32 36  1  0  0  0
M  END
>  <CHROM.0>
-177.08774689,-69.70049924,176.82346657

>  <CHROM.1>
-85.96469397,27.86047904,-89.58866996,-87.41967180,-114.51897730,39.65765163
-49.99768798,-4.88835356,16.44456468,-0.62943966,-0.29922777,-0.50189145

>  <Name>
3663

>  <PUBCHEM_ATOM_DEF_STEREO_COUNT>
0

>  <PUBCHEM_ATOM_UDEF_STEREO_COUNT>
0

>  <PUBCHEM_BOND_DEF_STEREO_COUNT>
0

>  <PUBCHEM_BOND_UDEF_STEREO_COUNT>
0

>  <PUBCHEM_CACTVS_TAUTO_COUNT>
991

>  <PUBCHEM_COMPONENT_COUNT>
1

>  <PUBCHEM_COMPOUND_CID>
3663

>  <PUBCHEM_CONFORMER_DIVERSEORDER>
2
1

>  <PUBCHEM_CONFORMER_ID>
00000E4F00000002

>  <PUBCHEM_CONFORMER_RMSD>
0.6

>  <PUBCHEM_COORDINATE_TYPE>
2
5
10

>  <PUBCHEM_EFFECTIVE_ROTOR_COUNT>
0

>  <PUBCHEM_FEATURE_SELFOVERLAP>
81.639

>  <PUBCHEM_HEAVY_ATOM_COUNT>
38

>  <PUBCHEM_ISOTOPIC_ATOM_COUNT>
0

>  <PUBCHEM_MMFF94_ENERGY>
199.63

>  <PUBCHEM_MMFF94_PARTIAL_CHARGES>
38
1 -0.53
15 0.03
16 0.03
19 0.09
2 -0.53
20 0.09
23 0.08
24 0.08
25 -0.17
26 -0.17
27 0.08
28 0.08
29 0.47
3 -0.53
30 0.47
31 0.08
32 0.08
33 -0.14
34 -0.14
35 -0.15
36 -0.15
37 0.14
38 0.14
39 0.15
4 -0.53
40 0.15
41 0.15
42 0.15
49 0.45
5 -0.53
50 0.45
51 0.45
52 0.45
53 0.45
54 0.45
6 -0.53
7 -0.57
8 -0.57

>  <PUBCHEM_PHARMACOPHORE_FEATURES>
16
1 1 donor
1 2 donor
1 3 donor
1 4 donor
1 5 donor
1 6 donor
1 7 acceptor
1 8 acceptor
6 10 12 14 20 22 24 rings
6 11 15 19 25 29 33 rings
6 12 16 20 26 30 34 rings
6 13 17 21 27 31 35 rings
6 14 18 22 28 32 36 rings
6 9 10 11 12 15 16 rings
6 9 10 13 14 17 18 rings
6 9 11 13 19 21 23 rings

>  <PUBCHEM_SHAPE_FINGERPRINT>
10675989 125 18194398016588665341
10967382 1 18410573980861784590
1100329 8 18338797788838864377
11513181 2 18202562856523954462
12788726 201 17902227051119725024
13140716 1 18411980234758873768
1361 2 17834393415430342929
138480 1 17617941335497513320
14117953 113 17978504230875699972
14295345 954 17473281881373637993
14790565 3 18410860961981475845
15320467 1 18194682806863435847
19591789 44 18410575088958364515
19930381 70 18337670939776099219
20028762 73 18056188077985354245
20764821 26 18337674122272798285
20775438 99 17406502308368123415
23559900 14 18339635629615806240
350125 39 18267024955406711448
3882209 13 17978467014948150279
463206 1 17761496193550011432

>  <PUBCHEM_SHAPE_MULTIPOLES>
735.07
8
7.97
0.74
0.18
0.01
0
-0.01
-0.01
0.69
0.01
-0.58
0
0.95

>  <PUBCHEM_SHAPE_SELFOVERLAP>
1773.472

>  <PUBCHEM_SHAPE_VOLUME>
357.3

>  <RI>
-2.21457e+08

>  <Rbt.Current_Directory>
/root/miniconda3/envs/rdock/share/rxdock-2013.1.1_148c5bd1-0/data/ligands/prepped_ligands/Hypericin

>  <Rbt.Executable>
rbdock/0.1.0

>  <Rbt.Library>
librxdock.so/0.1.0

>  <Rbt.Parameter_File>
/root/miniconda3/envs/rdock/share/rxdock-2013.1.1_148c5bd1-0/data/scripts/dock.prm

>  <Rbt.Receptor>
def.prm

>  <SCORE>
49.3158

>  <SCORE.INTER>
39.3027

>  <SCORE.INTER.CONST>
1

>  <SCORE.INTER.POLAR>
-0.572112

>  <SCORE.INTER.REPUL>
0

>  <SCORE.INTER.ROT>
0

>  <SCORE.INTER.VDW>
35.8479

>  <SCORE.INTER.norm>
1.03428

>  <SCORE.INTRA>
8.34174

>  <SCORE.INTRA.DIHEDRAL>
17.0786

>  <SCORE.INTRA.DIHEDRAL.0>
4.15609

>  <SCORE.INTRA.POLAR>
0.963707

>  <SCORE.INTRA.POLAR.0>
-1.21242

>  <SCORE.INTRA.REPUL>
0

>  <SCORE.INTRA.REPUL.0>
0

>  <SCORE.INTRA.VDW>
-3.47414

>  <SCORE.INTRA.VDW.0>
2.93348

>  <SCORE.INTRA.norm>
0.21952

>  <SCORE.RESTR>
2.59338

>  <SCORE.RESTR.CAVITY>
2.59338

>  <SCORE.RESTR.norm>
0.0682469

>  <SCORE.SYSTEM>
-0.922037

>  <SCORE.SYSTEM.CONST>
0

>  <SCORE.SYSTEM.DIHEDRAL>
0.500825

>  <SCORE.SYSTEM.VDW>
-1.17245

>  <SCORE.SYSTEM.norm>
-0.0242641

>  <SCORE.heavy>
38

>  <SCORE.norm>
1.29778

$$$$
3663
  RxDock  02242111003D
librxdock.so/0.1.0
 44 51  0  0  0  0  0  0  0  0999 V2000
  -46.7706   -3.2222   13.3086 O   0  0  0  0  0  0
  -50.0410   -1.1223   22.2631 O   0  0  0  0  0  0
  -52.3990   -4.5460   15.7083 O   0  0  0  0  0  0
  -53.2672   -3.6554   17.5334 O   0  0  0  0  0  0
  -48.9731   -4.2784   12.7122 O   0  0  0  0  0  0
  -52.3185   -2.0143   21.6800 O   0  0  0  0  0  0
  -44.5393   -2.3873   14.0631 O   0  0  0  0  0  0
  -47.8350   -0.0239   22.6761 O   0  0  0  0  0  0
  -48.2034   -2.3300   17.1299 C   0  0  0  0  0  0
  -48.6700   -2.0414   18.4256 C   0  0  0  0  0  0
  -46.8914   -1.9426   16.7587 C   0  0  0  0  0  0
  -47.7849   -1.4715   19.3748 C   0  0  0  0  0  0
  -49.0586   -2.9781   16.1981 C   0  0  0  0  0  0
  -50.0114   -2.3499   18.7794 C   0  0  0  0  0  0
  -46.0507   -1.2592   17.6755 C   0  0  0  0  0  0
  -46.4341   -1.2002   19.0347 C   0  0  0  0  0  0
  -50.3937   -3.3113   16.5471 C   0  0  0  0  0  0
  -50.8820   -2.9774   17.8501 C   0  0  0  0  0  0
  -46.4468   -2.2717   15.4670 C   0  0  0  0  0  0
  -48.2908   -1.1690   20.6504 C   0  0  0  0  0  0
  -48.5642   -3.2879   14.9032 C   0  0  0  0  0  0
  -50.4762   -2.0269   20.0820 C   0  0  0  0  0  0
  -47.2596   -2.9431   14.5548 C   0  0  0  0  0  0
  -49.6153   -1.4284   21.0002 C   0  0  0  0  0  0
  -44.8729   -0.5499   17.0875 C   0  0  0  0  0  0
  -45.4956   -0.9871   20.1794 C   0  0  0  0  0  0
  -51.1776   -3.9628   15.5623 C   0  0  0  0  0  0
  -52.2060   -3.2436   18.2801 C   0  0  0  0  0  0
  -45.0721   -1.9190   15.0599 C   0  0  0  0  0  0
  -47.4078   -0.5380   21.6514 C   0  0  0  0  0  0
  -49.3785   -3.9347   13.9700 C   0  0  0  0  0  0
  -51.7932   -2.3081   20.4543 C   0  0  0  0  0  0
  -44.3918   -0.9053   15.8854 C   0  0  0  0  0  0
  -45.9610   -0.6244   21.3855 C   0  0  0  0  0  0
  -50.6805   -4.2720   14.2983 C   0  0  0  0  0  0
  -52.6557   -2.9135   19.5564 C   0  0  0  0  0  0
  -44.3135    0.6968   17.7161 C   0  0  0  0  0  0
  -44.0409   -1.3563   20.0807 C   0  0  0  0  0  0
  -47.3008   -2.7793   12.6283 H   0  0  0  0  0  0
  -50.9792   -1.3404   22.3722 H   0  0  0  0  0  0
  -52.4954   -4.7986   16.6418 H   0  0  0  0  0  0
  -54.1090   -3.2822   17.8434 H   0  0  0  0  0  0
  -48.0382   -4.5454   12.7238 H   0  0  0  0  0  0
  -53.2852   -1.9311   21.6199 H   0  0  0  0  0  0
  1 23  1  0  0  0
  1 39  1  0  0  0
  2 24  1  0  0  0
  2 40  1  0  0  0
  3 27  1  0  0  0
  3 41  1  0  0  0
  4 28  1  0  0  0
  4 42  1  0  0  0
  5 31  1  0  0  0
  5 43  1  0  0  0
  6 32  1  0  0  0
  6 44  1  0  0  0
  7 29  2  0  0  0
  8 30  2  0  0  0
  9 10  1  0  0  0
  9 11  2  0  0  0
  9 13  1  0  0  0
 10 12  2  0  0  0
 10 14  1  0  0  0
 11 15  1  0  0  0
 11 19  1  0  0  0
 12 16  1  0  0  0
 12 20  1  0  0  0
 13 17  2  0  0  0
 13 21  1  0  0  0
 14 18  2  0  0  0
 14 22  1  0  0  0
 15 16  2  0  0  0
 15 25  1  0  0  0
 16 26  1  0  0  0
 17 18  1  0  0  0
 17 27  1  0  0  0
 18 28  1  0  0  0
 19 23  2  0  0  0
 19 29  1  0  0  0
 20 24  2  0  0  0
 20 30  1  0  0  0
 21 23  1  0  0  0
 21 31  2  0  0  0
 22 24  1  0  0  0
 22 32  2  0  0  0
 25 33  2  0  0  0
 25 37  1  0  0  0
 26 34  2  0  0  0
 26 38  1  0  0  0
 27 35  2  0  0  0
 28 36  2  0  0  0
 29 33  1  0  0  0
 30 34  1  0  0  0
 31 35  1  0  0  0
 32 36  1  0  0  0
M  END
>  <CHROM.0>
77.16436042,176.78157585,54.96380595

>  <CHROM.1>
-118.25367607,179.26991968,-24.59446935,-145.29443497,35.61233072,155.92559094
-48.48576348,-2.20426447,17.76727504,1.16717473,-0.31381641,-1.90551036

>  <Name>
3663

>  <PUBCHEM_ATOM_DEF_STEREO_COUNT>
0

>  <PUBCHEM_ATOM_UDEF_STEREO_COUNT>
0

>  <PUBCHEM_BOND_DEF_STEREO_COUNT>
0

>  <PUBCHEM_BOND_UDEF_STEREO_COUNT>
0

>  <PUBCHEM_CACTVS_TAUTO_COUNT>
991

>  <PUBCHEM_COMPONENT_COUNT>
1

>  <PUBCHEM_COMPOUND_CID>
3663

>  <PUBCHEM_CONFORMER_DIVERSEORDER>
2
1

>  <PUBCHEM_CONFORMER_ID>
00000E4F00000002

>  <PUBCHEM_CONFORMER_RMSD>
0.6

>  <PUBCHEM_COORDINATE_TYPE>
2
5
10

>  <PUBCHEM_EFFECTIVE_ROTOR_COUNT>
0

>  <PUBCHEM_FEATURE_SELFOVERLAP>
81.639

>  <PUBCHEM_HEAVY_ATOM_COUNT>
38

>  <PUBCHEM_ISOTOPIC_ATOM_COUNT>
0

>  <PUBCHEM_MMFF94_ENERGY>
199.63

>  <PUBCHEM_MMFF94_PARTIAL_CHARGES>
38
1 -0.53
15 0.03
16 0.03
19 0.09
2 -0.53
20 0.09
23 0.08
24 0.08
25 -0.17
26 -0.17
27 0.08
28 0.08
29 0.47
3 -0.53
30 0.47
31 0.08
32 0.08
33 -0.14
34 -0.14
35 -0.15
36 -0.15
37 0.14
38 0.14
39 0.15
4 -0.53
40 0.15
41 0.15
42 0.15
49 0.45
5 -0.53
50 0.45
51 0.45
52 0.45
53 0.45
54 0.45
6 -0.53
7 -0.57
8 -0.57

>  <PUBCHEM_PHARMACOPHORE_FEATURES>
16
1 1 donor
1 2 donor
1 3 donor
1 4 donor
1 5 donor
1 6 donor
1 7 acceptor
1 8 acceptor
6 10 12 14 20 22 24 rings
6 11 15 19 25 29 33 rings
6 12 16 20 26 30 34 rings
6 13 17 21 27 31 35 rings
6 14 18 22 28 32 36 rings
6 9 10 11 12 15 16 rings
6 9 10 13 14 17 18 rings
6 9 11 13 19 21 23 rings

>  <PUBCHEM_SHAPE_FINGERPRINT>
10675989 125 18194398016588665341
10967382 1 18410573980861784590
1100329 8 18338797788838864377
11513181 2 18202562856523954462
12788726 201 17902227051119725024
13140716 1 18411980234758873768
1361 2 17834393415430342929
138480 1 17617941335497513320
14117953 113 17978504230875699972
14295345 954 17473281881373637993
14790565 3 18410860961981475845
15320467 1 18194682806863435847
19591789 44 18410575088958364515
19930381 70 18337670939776099219
20028762 73 18056188077985354245
20764821 26 18337674122272798285
20775438 99 17406502308368123415
23559900 14 18339635629615806240
350125 39 18267024955406711448
3882209 13 17978467014948150279
463206 1 17761496193550011432

>  <PUBCHEM_SHAPE_MULTIPOLES>
735.07
8
7.97
0.74
0.18
0.01
0
-0.01
-0.01
0.69
0.01
-0.58
0
0.95

>  <PUBCHEM_SHAPE_SELFOVERLAP>
1773.472

>  <PUBCHEM_SHAPE_VOLUME>
357.3

>  <RI>
-2.21457e+08

>  <Rbt.Current_Directory>
/root/miniconda3/envs/rdock/share/rxdock-2013.1.1_148c5bd1-0/data/ligands/prepped_ligands/Hypericin

>  <Rbt.Executable>
rbdock/0.1.0

>  <Rbt.Library>
librxdock.so/0.1.0

>  <Rbt.Parameter_File>
/root/miniconda3/envs/rdock/share/rxdock-2013.1.1_148c5bd1-0/data/scripts/dock.prm

>  <Rbt.Receptor>
def.prm

>  <SCORE>
-10.1217

>  <SCORE.INTER>
-13.8167

>  <SCORE.INTER.CONST>
1

>  <SCORE.INTER.POLAR>
-1.4016

>  <SCORE.INTER.REPUL>
0.0312062

>  <SCORE.INTER.ROT>
0

>  <SCORE.INTER.VDW>
-14.6073

>  <SCORE.INTER.norm>
-0.363597

>  <SCORE.INTRA>
1.45526

>  <SCORE.INTRA.DIHEDRAL>
4.31641

>  <SCORE.INTRA.DIHEDRAL.0>
4.15609

>  <SCORE.INTRA.POLAR>
-0.0408541

>  <SCORE.INTRA.POLAR.0>
-1.21242

>  <SCORE.INTRA.REPUL>
0

>  <SCORE.INTRA.REPUL.0>
0

>  <SCORE.INTRA.VDW>
-0.564045

>  <SCORE.INTRA.VDW.0>
2.93348

>  <SCORE.INTRA.norm>
0.0382963

>  <SCORE.RESTR>
2.7961

>  <SCORE.RESTR.CAVITY>
2.7961

>  <SCORE.RESTR.norm>
0.0735815

>  <SCORE.SYSTEM>
-0.556347

>  <SCORE.SYSTEM.CONST>
0

>  <SCORE.SYSTEM.DIHEDRAL>
0.785695

>  <SCORE.SYSTEM.VDW>
-0.949195

>  <SCORE.SYSTEM.norm>
-0.0146407

>  <SCORE.heavy>
38

>  <SCORE.norm>
-0.26636

$$$$
3663
  RxDock  02242111003D
librxdock.so/0.1.0
 44 51  0  0  0  0  0  0  0  0999 V2000
  -49.9113   -1.1024   22.3983 O   0  0  0  0  0  0
  -46.7716   -3.2091   13.3986 O   0  0  0  0  0  0
  -53.2004   -3.6581   17.7248 O   0  0  0  0  0  0
  -52.3572   -4.5493   15.8883 O   0  0  0  0  0  0
  -52.1931   -2.0072   21.8534 O   0  0  0  0  0  0
  -48.9780   -4.2778   12.8397 O   0  0  0  0  0  0
  -47.7029    0.0050   22.7747 O   0  0  0  0  0  0
  -44.5322   -2.3646   14.1166 O   0  0  0  0  0  0
  -48.5962   -2.0246   18.5418 C   0  0  0  0  0  0
  -48.1486   -2.3142   17.2397 C   0  0  0  0  0  0
  -47.6986   -1.4495   19.4761 C   0  0  0  0  0  0
  -46.8439   -1.9228   16.8474 C   0  0  0  0  0  0
  -49.9306   -2.3376   18.9172 C   0  0  0  0  0  0
  -49.0156   -2.9677   16.3227 C   0  0  0  0  0  0
  -46.3541   -1.1738   19.1144 C   0  0  0  0  0  0
  -45.9917   -1.2344   17.7496 C   0  0  0  0  0  0
  -50.8131   -2.9705   18.0028 C   0  0  0  0  0  0
  -50.3437   -3.3053   16.6930 C   0  0  0  0  0  0
  -48.1858   -1.1463   20.7587 C   0  0  0  0  0  0
  -46.4180   -2.2531   15.5497 C   0  0  0  0  0  0
  -50.3762   -2.0138   20.2263 C   0  0  0  0  0  0
  -48.5401   -3.2788   15.0210 C   0  0  0  0  0  0
  -49.5036   -1.4101   21.1296 C   0  0  0  0  0  0
  -47.2423   -2.9298   14.6518 C   0  0  0  0  0  0
  -45.3990   -0.9553   20.2441 C   0  0  0  0  0  0
  -44.8254   -0.5222   17.1421 C   0  0  0  0  0  0
  -52.1291   -3.2412   18.4540 C   0  0  0  0  0  0
  -51.1402   -3.9624   15.7221 C   0  0  0  0  0  0
  -47.2897   -0.5100   21.7447 C   0  0  0  0  0  0
  -45.0511   -1.8963   15.1208 C   0  0  0  0  0  0
  -51.6861   -2.2996   20.6197 C   0  0  0  0  0  0
  -49.3662   -3.9311   14.1022 C   0  0  0  0  0  0
  -45.8468   -0.5921   21.4567 C   0  0  0  0  0  0
  -44.3616   -0.8788   15.9336 C   0  0  0  0  0  0
  -52.5602   -2.9103   19.7366 C   0  0  0  0  0  0
  -50.6615   -4.2727   14.4514 C   0  0  0  0  0  0
  -43.9446   -1.3194   20.1237 C   0  0  0  0  0  0
  -44.2610    0.7279   17.7594 C   0  0  0  0  0  0
  -49.4698   -0.2980   22.7115 H   0  0  0  0  0  0
  -45.9825   -2.6816   13.2020 H   0  0  0  0  0  0
  -53.9311   -3.0403   17.8948 H   0  0  0  0  0  0
  -52.9697   -4.3513   15.1606 H   0  0  0  0  0  0
  -53.1649   -2.0186   21.8265 H   0  0  0  0  0  0
  -48.2407   -3.7149   12.5486 H   0  0  0  0  0  0
  1 23  1  0  0  0
  1 39  1  0  0  0
  2 24  1  0  0  0
  2 40  1  0  0  0
  3 27  1  0  0  0
  3 41  1  0  0  0
  4 28  1  0  0  0
  4 42  1  0  0  0
  5 31  1  0  0  0
  5 43  1  0  0  0
  6 32  1  0  0  0
  6 44  1  0  0  0
  7 29  2  0  0  0
  8 30  2  0  0  0
  9 10  1  0  0  0
  9 11  2  0  0  0
  9 13  1  0  0  0
 10 12  2  0  0  0
 10 14  1  0  0  0
 11 15  1  0  0  0
 11 19  1  0  0  0
 12 16  1  0  0  0
 12 20  1  0  0  0
 13 17  2  0  0  0
 13 21  1  0  0  0
 14 18  2  0  0  0
 14 22  1  0  0  0
 15 16  2  0  0  0
 15 25  1  0  0  0
 16 26  1  0  0  0
 17 18  1  0  0  0
 17 27  1  0  0  0
 18 28  1  0  0  0
 19 23  2  0  0  0
 19 29  1  0  0  0
 20 24  2  0  0  0
 20 30  1  0  0  0
 21 23  1  0  0  0
 21 31  2  0  0  0
 22 24  1  0  0  0
 22 32  2  0  0  0
 25 33  2  0  0  0
 25 37  1  0  0  0
 26 34  2  0  0  0
 26 38  1  0  0  0
 27 35  2  0  0  0
 28 36  2  0  0  0
 29 33  1  0  0  0
 30 34  1  0  0  0
 31 35  1  0  0  0
 32 36  1  0  0  0
M  END
>  <CHROM.0>
-43.64709254,68.39008707,50.88037294

>  <CHROM.1>
34.83915293,-15.54333354,-126.44797122,137.54405261,161.74974307,-23.35956476
-48.41713508,-2.18370671,17.87850773,-1.93695422,-0.32094412,-1.90243769

>  <Name>
3663

>  <PUBCHEM_ATOM_DEF_STEREO_COUNT>
0

>  <PUBCHEM_ATOM_UDEF_STEREO_COUNT>
0

>  <PUBCHEM_BOND_DEF_STEREO_COUNT>
0

>  <PUBCHEM_BOND_UDEF_STEREO_COUNT>
0

>  <PUBCHEM_CACTVS_TAUTO_COUNT>
991

>  <PUBCHEM_COMPONENT_COUNT>
1

>  <PUBCHEM_COMPOUND_CID>
3663

>  <PUBCHEM_CONFORMER_DIVERSEORDER>
2
1

>  <PUBCHEM_CONFORMER_ID>
00000E4F00000002

>  <PUBCHEM_CONFORMER_RMSD>
0.6

>  <PUBCHEM_COORDINATE_TYPE>
2
5
10

>  <PUBCHEM_EFFECTIVE_ROTOR_COUNT>
0

>  <PUBCHEM_FEATURE_SELFOVERLAP>
81.639

>  <PUBCHEM_HEAVY_ATOM_COUNT>
38

>  <PUBCHEM_ISOTOPIC_ATOM_COUNT>
0

>  <PUBCHEM_MMFF94_ENERGY>
199.63

>  <PUBCHEM_MMFF94_PARTIAL_CHARGES>
38
1 -0.53
15 0.03
16 0.03
19 0.09
2 -0.53
20 0.09
23 0.08
24 0.08
25 -0.17
26 -0.17
27 0.08
28 0.08
29 0.47
3 -0.53
30 0.47
31 0.08
32 0.08
33 -0.14
34 -0.14
35 -0.15
36 -0.15
37 0.14
38 0.14
39 0.15
4 -0.53
40 0.15
41 0.15
42 0.15
49 0.45
5 -0.53
50 0.45
51 0.45
52 0.45
53 0.45
54 0.45
6 -0.53
7 -0.57
8 -0.57

>  <PUBCHEM_PHARMACOPHORE_FEATURES>
16
1 1 donor
1 2 donor
1 3 donor
1 4 donor
1 5 donor
1 6 donor
1 7 acceptor
1 8 acceptor
6 10 12 14 20 22 24 rings
6 11 15 19 25 29 33 rings
6 12 16 20 26 30 34 rings
6 13 17 21 27 31 35 rings
6 14 18 22 28 32 36 rings
6 9 10 11 12 15 16 rings
6 9 10 13 14 17 18 rings
6 9 11 13 19 21 23 rings

>  <PUBCHEM_SHAPE_FINGERPRINT>
10675989 125 18194398016588665341
10967382 1 18410573980861784590
1100329 8 18338797788838864377
11513181 2 18202562856523954462
12788726 201 17902227051119725024
13140716 1 18411980234758873768
1361 2 17834393415430342929
138480 1 17617941335497513320
14117953 113 17978504230875699972
14295345 954 17473281881373637993
14790565 3 18410860961981475845
15320467 1 18194682806863435847
19591789 44 18410575088958364515
19930381 70 18337670939776099219
20028762 73 18056188077985354245
20764821 26 18337674122272798285
20775438 99 17406502308368123415
23559900 14 18339635629615806240
350125 39 18267024955406711448
3882209 13 17978467014948150279
463206 1 17761496193550011432

>  <PUBCHEM_SHAPE_MULTIPOLES>
735.07
8
7.97
0.74
0.18
0.01
0
-0.01
-0.01
0.69
0.01
-0.58
0
0.95

>  <PUBCHEM_SHAPE_SELFOVERLAP>
1773.472

>  <PUBCHEM_SHAPE_VOLUME>
357.3

>  <RI>
-2.21457e+08

>  <Rbt.Current_Directory>
/root/miniconda3/envs/rdock/share/rxdock-2013.1.1_148c5bd1-0/data/ligands/prepped_ligands/Hypericin

>  <Rbt.Executable>
rbdock/0.1.0

>  <Rbt.Library>
librxdock.so/0.1.0

>  <Rbt.Parameter_File>
/root/miniconda3/envs/rdock/share/rxdock-2013.1.1_148c5bd1-0/data/scripts/dock.prm

>  <Rbt.Receptor>
def.prm

>  <SCORE>
-6.88199

>  <SCORE.INTER>
-13.3127

>  <SCORE.INTER.CONST>
1

>  <SCORE.INTER.POLAR>
-1.15545

>  <SCORE.INTER.REPUL>
0

>  <SCORE.INTER.ROT>
0

>  <SCORE.INTER.VDW>
-14.7842

>  <SCORE.INTER.norm>
-0.350334

>  <SCORE.INTRA>
3.84769

>  <SCORE.INTRA.DIHEDRAL>
4.22866

>  <SCORE.INTRA.DIHEDRAL.0>
4.15609

>  <SCORE.INTRA.POLAR>
0.600478

>  <SCORE.INTRA.POLAR.0>
-1.21242

>  <SCORE.INTRA.REPUL>
0.0176633

>  <SCORE.INTRA.REPUL.0>
0

>  <SCORE.INTRA.VDW>
-0.396579

>  <SCORE.INTRA.VDW.0>
2.93348

>  <SCORE.INTRA.norm>
0.101255

>  <SCORE.RESTR>
3.01451

>  <SCORE.RESTR.CAVITY>
3.01451

>  <SCORE.RESTR.norm>
0.0793292

>  <SCORE.SYSTEM>
-0.4315

>  <SCORE.SYSTEM.CONST>
0

>  <SCORE.SYSTEM.DIHEDRAL>
1.16031

>  <SCORE.SYSTEM.VDW>
-1.01165

>  <SCORE.SYSTEM.norm>
-0.0113553

>  <SCORE.heavy>
38

>  <SCORE.norm>
-0.181105

$$$$
3663
  RxDock  02242111003D
librxdock.so/0.1.0
 44 51  0  0  0  0  0  0  0  0999 V2000
  -52.9944   -2.4364   16.9668 O   0  0  0  0  0  0
  -43.4650   -0.9809   18.5034 O   0  0  0  0  0  0
  -48.3235   -3.1885   12.8671 O   0  0  0  0  0  0
  -46.1754   -3.3140   13.3649 O   0  0  0  0  0  0
  -52.5413   -3.1457   14.5975 O   0  0  0  0  0  0
  -42.9261   -1.8350   16.2007 O   0  0  0  0  0  0
  -53.3804   -1.4789   19.2426 O   0  0  0  0  0  0
  -44.0614   -0.3927   20.8576 O   0  0  0  0  0  0
  -48.9089   -1.8316   17.5948 C   0  0  0  0  0  0
  -47.5368   -1.6071   17.8110 C   0  0  0  0  0  0
  -49.8265   -1.6143   18.6531 C   0  0  0  0  0  0
  -47.1057   -1.0592   19.0452 C   0  0  0  0  0  0
  -49.3583   -2.3015   16.3311 C   0  0  0  0  0  0
  -46.6010   -1.9027   16.7831 C   0  0  0  0  0  0
  -49.3742   -1.1839   19.9277 C   0  0  0  0  0  0
  -48.0432   -0.7261   20.0572 C   0  0  0  0  0  0
  -48.4351   -2.5794   15.2890 C   0  0  0  0  0  0
  -47.0358   -2.3934   15.5239 C   0  0  0  0  0  0
  -51.1923   -1.8203   18.3950 C   0  0  0  0  0  0
  -45.7263   -0.8748   19.2394 C   0  0  0  0  0  0
  -50.7490   -2.4967   16.1191 C   0  0  0  0  0  0
  -45.2168   -1.6975   17.0261 C   0  0  0  0  0  0
  -51.6530   -2.2422   17.1487 C   0  0  0  0  0  0
  -44.7923   -1.1976   18.2559 C   0  0  0  0  0  0
  -50.3296   -1.3682   21.0632 C   0  0  0  0  0  0
  -47.5564    0.1951   21.1301 C   0  0  0  0  0  0
  -48.9664   -3.0373   14.0575 C   0  0  0  0  0  0
  -46.0377   -2.6702   14.5565 C   0  0  0  0  0  0
  -52.1800   -1.5652   19.4624 C   0  0  0  0  0  0
  -45.2385   -0.3435   20.5277 C   0  0  0  0  0  0
  -51.2209   -2.9472   14.8835 C   0  0  0  0  0  0
  -44.2731   -1.9900   16.0383 C   0  0  0  0  0  0
  -51.6469   -1.4913   20.8343 C   0  0  0  0  0  0
  -46.2426    0.3233   21.3755 C   0  0  0  0  0  0
  -50.3331   -3.2157   13.8556 C   0  0  0  0  0  0
  -44.6816   -2.4756   14.8079 C   0  0  0  0  0  0
  -49.8440   -1.6177   22.4648 C   0  0  0  0  0  0
  -48.4878    1.1462   21.8301 C   0  0  0  0  0  0
  -53.3794   -2.8888   17.7331 H   0  0  0  0  0  0
  -43.3438   -0.2115   19.0805 H   0  0  0  0  0  0
  -48.8095   -2.6728   12.2020 H   0  0  0  0  0  0
  -46.9537   -3.8952   13.3423 H   0  0  0  0  0  0
  -52.8688   -2.4348   14.0207 H   0  0  0  0  0  0
  -42.4486   -2.5486   15.7447 H   0  0  0  0  0  0
  1 23  1  0  0  0
  1 39  1  0  0  0
  2 24  1  0  0  0
  2 40  1  0  0  0
  3 27  1  0  0  0
  3 41  1  0  0  0
  4 28  1  0  0  0
  4 42  1  0  0  0
  5 31  1  0  0  0
  5 43  1  0  0  0
  6 32  1  0  0  0
  6 44  1  0  0  0
  7 29  2  0  0  0
  8 30  2  0  0  0
  9 10  1  0  0  0
  9 11  2  0  0  0
  9 13  1  0  0  0
 10 12  2  0  0  0
 10 14  1  0  0  0
 11 15  1  0  0  0
 11 19  1  0  0  0
 12 16  1  0  0  0
 12 20  1  0  0  0
 13 17  2  0  0  0
 13 21  1  0  0  0
 14 18  2  0  0  0
 14 22  1  0  0  0
 15 16  2  0  0  0
 15 25  1  0  0  0
 16 26  1  0  0  0
 17 18  1  0  0  0
 17 27  1  0  0  0
 18 28  1  0  0  0
 19 23  2  0  0  0
 19 29  1  0  0  0
 20 24  2  0  0  0
 20 30  1  0  0  0
 21 23  1  0  0  0
 21 31  2  0  0  0
 22 24  1  0  0  0
 22 32  2  0  0  0
 25 33  2  0  0  0
 25 37  1  0  0  0
 26 34  2  0  0  0
 26 38  1  0  0  0
 27 35  2  0  0  0
 28 36  2  0  0  0
 29 33  1  0  0  0
 30 34  1  0  0  0
 31 35  1  0  0  0
 32 36  1  0  0  0
M  END
>  <CHROM.0>
63.78938496,-55.85867867,56.06517169

>  <CHROM.1>
-42.39046912,-32.07398848,-124.40949104,-22.72772113,105.68847256,143.30253013
-48.21580609,-1.73457989,17.65627605,2.92826864,-0.09970057,-1.91261720

>  <Name>
3663

>  <PUBCHEM_ATOM_DEF_STEREO_COUNT>
0

>  <PUBCHEM_ATOM_UDEF_STEREO_COUNT>
0

>  <PUBCHEM_BOND_DEF_STEREO_COUNT>
0

>  <PUBCHEM_BOND_UDEF_STEREO_COUNT>
0

>  <PUBCHEM_CACTVS_TAUTO_COUNT>
991

>  <PUBCHEM_COMPONENT_COUNT>
1

>  <PUBCHEM_COMPOUND_CID>
3663

>  <PUBCHEM_CONFORMER_DIVERSEORDER>
2
1

>  <PUBCHEM_CONFORMER_ID>
00000E4F00000002

>  <PUBCHEM_CONFORMER_RMSD>
0.6

>  <PUBCHEM_COORDINATE_TYPE>
2
5
10

>  <PUBCHEM_EFFECTIVE_ROTOR_COUNT>
0

>  <PUBCHEM_FEATURE_SELFOVERLAP>
81.639

>  <PUBCHEM_HEAVY_ATOM_COUNT>
38

>  <PUBCHEM_ISOTOPIC_ATOM_COUNT>
0

>  <PUBCHEM_MMFF94_ENERGY>
199.63

>  <PUBCHEM_MMFF94_PARTIAL_CHARGES>
38
1 -0.53
15 0.03
16 0.03
19 0.09
2 -0.53
20 0.09
23 0.08
24 0.08
25 -0.17
26 -0.17
27 0.08
28 0.08
29 0.47
3 -0.53
30 0.47
31 0.08
32 0.08
33 -0.14
34 -0.14
35 -0.15
36 -0.15
37 0.14
38 0.14
39 0.15
4 -0.53
40 0.15
41 0.15
42 0.15
49 0.45
5 -0.53
50 0.45
51 0.45
52 0.45
53 0.45
54 0.45
6 -0.53
7 -0.57
8 -0.57

>  <PUBCHEM_PHARMACOPHORE_FEATURES>
16
1 1 donor
1 2 donor
1 3 donor
1 4 donor
1 5 donor
1 6 donor
1 7 acceptor
1 8 acceptor
6 10 12 14 20 22 24 rings
6 11 15 19 25 29 33 rings
6 12 16 20 26 30 34 rings
6 13 17 21 27 31 35 rings
6 14 18 22 28 32 36 rings
6 9 10 11 12 15 16 rings
6 9 10 13 14 17 18 rings
6 9 11 13 19 21 23 rings

>  <PUBCHEM_SHAPE_FINGERPRINT>
10675989 125 18194398016588665341
10967382 1 18410573980861784590
1100329 8 18338797788838864377
11513181 2 18202562856523954462
12788726 201 17902227051119725024
13140716 1 18411980234758873768
1361 2 17834393415430342929
138480 1 17617941335497513320
14117953 113 17978504230875699972
14295345 954 17473281881373637993
14790565 3 18410860961981475845
15320467 1 18194682806863435847
19591789 44 18410575088958364515
19930381 70 18337670939776099219
20028762 73 18056188077985354245
20764821 26 18337674122272798285
20775438 99 17406502308368123415
23559900 14 18339635629615806240
350125 39 18267024955406711448
3882209 13 17978467014948150279
463206 1 17761496193550011432

>  <PUBCHEM_SHAPE_MULTIPOLES>
735.07
8
7.97
0.74
0.18
0.01
0
-0.01
-0.01
0.69
0.01
-0.58
0
0.95

>  <PUBCHEM_SHAPE_SELFOVERLAP>
1773.472

>  <PUBCHEM_SHAPE_VOLUME>
357.3

>  <RI>
-2.21457e+08

>  <Rbt.Current_Directory>
/root/miniconda3/envs/rdock/share/rxdock-2013.1.1_148c5bd1-0/data/ligands/prepped_ligands/Hypericin

>  <Rbt.Executable>
rbdock/0.1.0

>  <Rbt.Library>
librxdock.so/0.1.0

>  <Rbt.Parameter_File>
/root/miniconda3/envs/rdock/share/rxdock-2013.1.1_148c5bd1-0/data/scripts/dock.prm

>  <Rbt.Receptor>
def.prm

>  <SCORE>
-1.92148

>  <SCORE.INTER>
-9.60501

>  <SCORE.INTER.CONST>
1

>  <SCORE.INTER.POLAR>
-1.69172

>  <SCORE.INTER.REPUL>
0.862319

>  <SCORE.INTER.ROT>
0

>  <SCORE.INTER.VDW>
-13.5647

>  <SCORE.INTER.norm>
-0.252763

>  <SCORE.INTRA>
6.35417

>  <SCORE.INTRA.DIHEDRAL>
9.58884

>  <SCORE.INTRA.DIHEDRAL.0>
4.15609

>  <SCORE.INTRA.POLAR>
0.941421

>  <SCORE.INTRA.POLAR.0>
-1.21242

>  <SCORE.INTRA.REPUL>
0

>  <SCORE.INTRA.REPUL.0>
0

>  <SCORE.INTRA.VDW>
-1.64108

>  <SCORE.INTRA.VDW.0>
2.93348

>  <SCORE.INTRA.norm>
0.167215

>  <SCORE.RESTR>
2.2635

>  <SCORE.RESTR.CAVITY>
2.2635

>  <SCORE.RESTR.norm>
0.0595658

>  <SCORE.SYSTEM>
-0.934149

>  <SCORE.SYSTEM.CONST>
0

>  <SCORE.SYSTEM.DIHEDRAL>
0.158286

>  <SCORE.SYSTEM.VDW>
-1.01329

>  <SCORE.SYSTEM.norm>
-0.0245829

>  <SCORE.heavy>
38

>  <SCORE.norm>
-0.0505654

$$$$
3663
  RxDock  02242111003D
librxdock.so/0.1.0
 44 51  0  0  0  0  0  0  0  0999 V2000
  -46.6142   -3.2525   13.4030 O   0  0  0  0  0  0
  -49.6896   -0.7583   22.3254 O   0  0  0  0  0  0
  -52.3417   -4.0325   15.8068 O   0  0  0  0  0  0
  -53.1274   -3.0452   17.6195 O   0  0  0  0  0  0
  -48.9027   -4.1120   12.8147 O   0  0  0  0  0  0
  -52.0380   -1.4473   21.7483 O   0  0  0  0  0  0
  -44.3172   -2.6141   14.1522 O   0  0  0  0  0  0
  -47.3936    0.1408   22.7299 O   0  0  0  0  0  0
  -47.9640   -2.1886   17.2107 C   0  0  0  0  0  0
  -48.4038   -1.8435   18.5018 C   0  0  0  0  0  0
  -46.6220   -1.9261   16.8375 C   0  0  0  0  0  0
  -47.4716   -1.3448   19.4461 C   0  0  0  0  0  0
  -48.8735   -2.7677   16.2848 C   0  0  0  0  0  0
  -49.7680   -2.0251   18.8566 C   0  0  0  0  0  0
  -45.7237   -1.3107   17.7479 C   0  0  0  0  0  0
  -46.1015   -1.2009   19.1055 C   0  0  0  0  0  0
  -50.2336   -2.9744   16.6350 C   0  0  0  0  0  0
  -50.6909   -2.5822   17.9330 C   0  0  0  0  0  0
  -46.2078   -2.3094   15.5507 C   0  0  0  0  0  0
  -47.9493   -0.9825   20.7169 C   0  0  0  0  0  0
  -48.4080   -3.1364   14.9947 C   0  0  0  0  0  0
  -50.2028   -1.6458   20.1543 C   0  0  0  0  0  0
  -47.0772   -2.9154   14.6449 C   0  0  0  0  0  0
  -49.2921   -1.1167   21.0671 C   0  0  0  0  0  0
  -44.4859   -0.7179   17.1540 C   0  0  0  0  0  0
  -45.1486   -1.0600   20.2495 C   0  0  0  0  0  0
  -51.0724   -3.5640   15.6564 C   0  0  0  0  0  0
  -52.0340   -2.7223   18.3634 C   0  0  0  0  0  0
  -44.8063   -2.0875   15.1423 C   0  0  0  0  0  0
  -47.0138   -0.4220   21.7122 C   0  0  0  0  0  0
  -49.2766   -3.7179   14.0675 C   0  0  0  0  0  0
  -51.5403   -1.8020   20.5272 C   0  0  0  0  0  0
  -44.0378   -1.1299   15.9571 C   0  0  0  0  0  0
  -45.5805   -0.6423   21.4503 C   0  0  0  0  0  0
  -50.6041   -3.9321   14.3972 C   0  0  0  0  0  0
  -52.4532   -2.3375   19.6348 C   0  0  0  0  0  0
  -43.8165    0.4804   17.7689 C   0  0  0  0  0  0
  -43.7332   -1.5605   20.1582 C   0  0  0  0  0  0
  -46.8785   -2.5869   12.7494 H   0  0  0  0  0  0
  -49.0312   -1.0275   22.9840 H   0  0  0  0  0  0
  -52.7488   -4.0694   14.9250 H   0  0  0  0  0  0
  -53.0060   -2.8535   16.6747 H   0  0  0  0  0  0
  -47.9617   -4.3563   12.8083 H   0  0  0  0  0  0
  -53.0093   -1.4860   21.7391 H   0  0  0  0  0  0
  1 23  1  0  0  0
  1 39  1  0  0  0
  2 24  1  0  0  0
  2 40  1  0  0  0
  3 27  1  0  0  0
  3 41  1  0  0  0
  4 28  1  0  0  0
  4 42  1  0  0  0
  5 31  1  0  0  0
  5 43  1  0  0  0
  6 32  1  0  0  0
  6 44  1  0  0  0
  7 29  2  0  0  0
  8 30  2  0  0  0
  9 10  1  0  0  0
  9 11  2  0  0  0
  9 13  1  0  0  0
 10 12  2  0  0  0
 10 14  1  0  0  0
 11 15  1  0  0  0
 11 19  1  0  0  0
 12 16  1  0  0  0
 12 20  1  0  0  0
 13 17  2  0  0  0
 13 21  1  0  0  0
 14 18  2  0  0  0
 14 22  1  0  0  0
 15 16  2  0  0  0
 15 25  1  0  0  0
 16 26  1  0  0  0
 17 18  1  0  0  0
 17 27  1  0  0  0
 18 28  1  0  0  0
 19 23  2  0  0  0
 19 29  1  0  0  0
 20 24  2  0  0  0
 20 30  1  0  0  0
 21 23  1  0  0  0
 21 31  2  0  0  0
 22 24  1  0  0  0
 22 32  2  0  0  0
 25 33  2  0  0  0
 25 37  1  0  0  0
 26 34  2  0  0  0
 26 38  1  0  0  0
 27 35  2  0  0  0
 28 36  2  0  0  0
 29 33  1  0  0  0
 30 34  1  0  0  0
 31 35  1  0  0  0
 32 36  1  0  0  0
M  END
>  <CHROM.0>
-42.84749432,-178.72204282,-175.23201836

>  <CHROM.1>
-99.79075542,-39.63678244,159.75703379,-22.35180097,28.46586538,169.50836005
-48.22945677,-2.03046216,17.84099052,-1.25590489,0.22748532,1.23398864

>  <Name>
3663

>  <PUBCHEM_ATOM_DEF_STEREO_COUNT>
0

>  <PUBCHEM_ATOM_UDEF_STEREO_COUNT>
0

>  <PUBCHEM_BOND_DEF_STEREO_COUNT>
0

>  <PUBCHEM_BOND_UDEF_STEREO_COUNT>
0

>  <PUBCHEM_CACTVS_TAUTO_COUNT>
991

>  <PUBCHEM_COMPONENT_COUNT>
1

>  <PUBCHEM_COMPOUND_CID>
3663

>  <PUBCHEM_CONFORMER_DIVERSEORDER>
2
1

>  <PUBCHEM_CONFORMER_ID>
00000E4F00000002

>  <PUBCHEM_CONFORMER_RMSD>
0.6

>  <PUBCHEM_COORDINATE_TYPE>
2
5
10

>  <PUBCHEM_EFFECTIVE_ROTOR_COUNT>
0

>  <PUBCHEM_FEATURE_SELFOVERLAP>
81.639

>  <PUBCHEM_HEAVY_ATOM_COUNT>
38

>  <PUBCHEM_ISOTOPIC_ATOM_COUNT>
0

>  <PUBCHEM_MMFF94_ENERGY>
199.63

>  <PUBCHEM_MMFF94_PARTIAL_CHARGES>
38
1 -0.53
15 0.03
16 0.03
19 0.09
2 -0.53
20 0.09
23 0.08
24 0.08
25 -0.17
26 -0.17
27 0.08
28 0.08
29 0.47
3 -0.53
30 0.47
31 0.08
32 0.08
33 -0.14
34 -0.14
35 -0.15
36 -0.15
37 0.14
38 0.14
39 0.15
4 -0.53
40 0.15
41 0.15
42 0.15
49 0.45
5 -0.53
50 0.45
51 0.45
52 0.45
53 0.45
54 0.45
6 -0.53
7 -0.57
8 -0.57

>  <PUBCHEM_PHARMACOPHORE_FEATURES>
16
1 1 donor
1 2 donor
1 3 donor
1 4 donor
1 5 donor
1 6 donor
1 7 acceptor
1 8 acceptor
6 10 12 14 20 22 24 rings
6 11 15 19 25 29 33 rings
6 12 16 20 26 30 34 rings
6 13 17 21 27 31 35 rings
6 14 18 22 28 32 36 rings
6 9 10 11 12 15 16 rings
6 9 10 13 14 17 18 rings
6 9 11 13 19 21 23 rings

>  <PUBCHEM_SHAPE_FINGERPRINT>
10675989 125 18194398016588665341
10967382 1 18410573980861784590
1100329 8 18338797788838864377
11513181 2 18202562856523954462
12788726 201 17902227051119725024
13140716 1 18411980234758873768
1361 2 17834393415430342929
138480 1 17617941335497513320
14117953 113 17978504230875699972
14295345 954 17473281881373637993
14790565 3 18410860961981475845
15320467 1 18194682806863435847
19591789 44 18410575088958364515
19930381 70 18337670939776099219
20028762 73 18056188077985354245
20764821 26 18337674122272798285
20775438 99 17406502308368123415
23559900 14 18339635629615806240
350125 39 18267024955406711448
3882209 13 17978467014948150279
463206 1 17761496193550011432

>  <PUBCHEM_SHAPE_MULTIPOLES>
735.07
8
7.97
0.74
0.18
0.01
0
-0.01
-0.01
0.69
0.01
-0.58
0
0.95

>  <PUBCHEM_SHAPE_SELFOVERLAP>
1773.472

>  <PUBCHEM_SHAPE_VOLUME>
357.3

>  <RI>
-2.21457e+08

>  <Rbt.Current_Directory>
/root/miniconda3/envs/rdock/share/rxdock-2013.1.1_148c5bd1-0/data/ligands/prepped_ligands/Hypericin

>  <Rbt.Executable>
rbdock/0.1.0

>  <Rbt.Library>
librxdock.so/0.1.0

>  <Rbt.Parameter_File>
/root/miniconda3/envs/rdock/share/rxdock-2013.1.1_148c5bd1-0/data/scripts/dock.prm

>  <Rbt.Receptor>
def.prm

>  <SCORE>
-5.26777

>  <SCORE.INTER>
-11.9547

>  <SCORE.INTER.CONST>
1

>  <SCORE.INTER.POLAR>
-1.02172

>  <SCORE.INTER.REPUL>
0.0439921

>  <SCORE.INTER.ROT>
0

>  <SCORE.INTER.VDW>
-14.1008

>  <SCORE.INTER.norm>
-0.314596

>  <SCORE.INTRA>
4.64672

>  <SCORE.INTRA.DIHEDRAL>
5.61598

>  <SCORE.INTRA.DIHEDRAL.0>
4.15609

>  <SCORE.INTRA.POLAR>
0.72443

>  <SCORE.INTRA.POLAR.0>
-1.21242

>  <SCORE.INTRA.REPUL>
0

>  <SCORE.INTRA.REPUL.0>
0

>  <SCORE.INTRA.VDW>
-0.624338

>  <SCORE.INTRA.VDW.0>
2.93348

>  <SCORE.INTRA.norm>
0.122282

>  <SCORE.RESTR>
2.66271

>  <SCORE.RESTR.CAVITY>
2.66271

>  <SCORE.RESTR.norm>
0.0700713

>  <SCORE.SYSTEM>
-0.622537

>  <SCORE.SYSTEM.CONST>
0

>  <SCORE.SYSTEM.DIHEDRAL>
0.727562

>  <SCORE.SYSTEM.POLAR>
-0.011829

>  <SCORE.SYSTEM.VDW>
-0.9461

>  <SCORE.SYSTEM.norm>
-0.0163826

>  <SCORE.heavy>
38

>  <SCORE.norm>
-0.138625

$$$$
3663
  RxDock  02242111003D
librxdock.so/0.1.0
 44 51  0  0  0  0  0  0  0  0999 V2000
  -43.4901   -1.0320   19.0081 O   0  0  0  0  0  0
  -52.9309   -2.4045   16.9400 O   0  0  0  0  0  0
  -45.9394   -3.1610   13.6547 O   0  0  0  0  0  0
  -48.0596   -3.0114   13.0545 O   0  0  0  0  0  0
  -42.8366   -1.7963   16.7035 O   0  0  0  0  0  0
  -52.3596   -3.0213   14.5702 O   0  0  0  0  0  0
  -44.2043   -0.5318   21.3500 O   0  0  0  0  0  0
  -53.4306   -1.5330   19.2279 O   0  0  0  0  0  0
  -47.5223   -1.6214   18.0885 C   0  0  0  0  0  0
  -48.8819   -1.8341   17.7951 C   0  0  0  0  0  0
  -47.1536   -1.1216   19.3627 C   0  0  0  0  0  0
  -49.8515   -1.6547   18.8134 C   0  0  0  0  0  0
  -46.5361   -1.8798   17.0984 C   0  0  0  0  0  0
  -49.2673   -2.2543   16.4933 C   0  0  0  0  0  0
  -48.1409   -0.8249   20.3382 C   0  0  0  0  0  0
  -49.4638   -1.2742   20.1244 C   0  0  0  0  0  0
  -46.9072   -2.3211   15.8011 C   0  0  0  0  0  0
  -48.2930   -2.4945   15.4892 C   0  0  0  0  0  0
  -45.7857   -0.9480   19.6328 C   0  0  0  0  0  0
  -51.2027   -1.8472   18.4792 C   0  0  0  0  0  0
  -45.1659   -1.6870   17.4184 C   0  0  0  0  0  0
  -50.6457   -2.4377   16.2041 C   0  0  0  0  0  0
  -44.8036   -1.2353   18.6860 C   0  0  0  0  0  0
  -51.6003   -2.2201   17.1960 C   0  0  0  0  0  0
  -47.7082    0.0540   21.4680 C   0  0  0  0  0  0
  -50.4755   -1.4986   21.2028 C   0  0  0  0  0  0
  -45.8618   -2.5630   14.8751 C   0  0  0  0  0  0
  -48.7619   -2.9036   14.2158 C   0  0  0  0  0  0
  -45.3632   -0.4670   20.9633 C   0  0  0  0  0  0
  -52.2428   -1.6302   19.5044 C   0  0  0  0  0  0
  -44.1736   -1.9436   16.4687 C   0  0  0  0  0  0
  -51.0550   -2.8391   14.9300 C   0  0  0  0  0  0
  -46.4083    0.1700   21.7840 C   0  0  0  0  0  0
  -51.7796   -1.6093   20.9031 C   0  0  0  0  0  0
  -44.5199   -2.3811   15.2016 C   0  0  0  0  0  0
  -50.1167   -3.0705   13.9387 C   0  0  0  0  0  0
  -48.6733    0.9803   22.1559 C   0  0  0  0  0  0
  -50.0614   -1.8022   22.6165 C   0  0  0  0  0  0
  -42.9176   -1.2568   18.2585 H   0  0  0  0  0  0
  -53.4324   -2.4834   17.7657 H   0  0  0  0  0  0
  -46.5070   -3.9446   13.7459 H   0  0  0  0  0  0
  -47.3010   -2.4053   13.0194 H   0  0  0  0  0  0
  -42.3245   -2.1830   15.9731 H   0  0  0  0  0  0
  -52.4790   -2.8198   13.6267 H   0  0  0  0  0  0
  1 23  1  0  0  0
  1 39  1  0  0  0
  2 24  1  0  0  0
  2 40  1  0  0  0
  3 27  1  0  0  0
  3 41  1  0  0  0
  4 28  1  0  0  0
  4 42  1  0  0  0
  5 31  1  0  0  0
  5 43  1  0  0  0
  6 32  1  0  0  0
  6 44  1  0  0  0
  7 29  2  0  0  0
  8 30  2  0  0  0
  9 10  1  0  0  0
  9 11  2  0  0  0
  9 13  1  0  0  0
 10 12  2  0  0  0
 10 14  1  0  0  0
 11 15  1  0  0  0
 11 19  1  0  0  0
 12 16  1  0  0  0
 12 20  1  0  0  0
 13 17  2  0  0  0
 13 21  1  0  0  0
 14 18  2  0  0  0
 14 22  1  0  0  0
 15 16  2  0  0  0
 15 25  1  0  0  0
 16 26  1  0  0  0
 17 18  1  0  0  0
 17 27  1  0  0  0
 18 28  1  0  0  0
 19 23  2  0  0  0
 19 29  1  0  0  0
 20 24  2  0  0  0
 20 30  1  0  0  0
 21 23  1  0  0  0
 21 31  2  0  0  0
 22 24  1  0  0  0
 22 32  2  0  0  0
 25 33  2  0  0  0
 25 37  1  0  0  0
 26 34  2  0  0  0
 26 38  1  0  0  0
 27 35  2  0  0  0
 28 36  2  0  0  0
 29 33  1  0  0  0
 30 34  1  0  0  0
 31 35  1  0  0  0
 32 36  1  0  0  0
M  END
>  <CHROM.0>
72.74784698,-63.78589855,62.50951976

>  <CHROM.1>
-179.06386233,-15.56644560,-43.59226490,-27.49369932,169.44769744,149.18846554
-48.18875689,-1.74239619,17.89261062,0.21893388,0.08216431,1.26221418

>  <Name>
3663

>  <PUBCHEM_ATOM_DEF_STEREO_COUNT>
0

>  <PUBCHEM_ATOM_UDEF_STEREO_COUNT>
0

>  <PUBCHEM_BOND_DEF_STEREO_COUNT>
0

>  <PUBCHEM_BOND_UDEF_STEREO_COUNT>
0

>  <PUBCHEM_CACTVS_TAUTO_COUNT>
991

>  <PUBCHEM_COMPONENT_COUNT>
1

>  <PUBCHEM_COMPOUND_CID>
3663

>  <PUBCHEM_CONFORMER_DIVERSEORDER>
2
1

>  <PUBCHEM_CONFORMER_ID>
00000E4F00000002

>  <PUBCHEM_CONFORMER_RMSD>
0.6

>  <PUBCHEM_COORDINATE_TYPE>
2
5
10

>  <PUBCHEM_EFFECTIVE_ROTOR_COUNT>
0

>  <PUBCHEM_FEATURE_SELFOVERLAP>
81.639

>  <PUBCHEM_HEAVY_ATOM_COUNT>
38

>  <PUBCHEM_ISOTOPIC_ATOM_COUNT>
0

>  <PUBCHEM_MMFF94_ENERGY>
199.63

>  <PUBCHEM_MMFF94_PARTIAL_CHARGES>
38
1 -0.53
15 0.03
16 0.03
19 0.09
2 -0.53
20 0.09
23 0.08
24 0.08
25 -0.17
26 -0.17
27 0.08
28 0.08
29 0.47
3 -0.53
30 0.47
31 0.08
32 0.08
33 -0.14
34 -0.14
35 -0.15
36 -0.15
37 0.14
38 0.14
39 0.15
4 -0.53
40 0.15
41 0.15
42 0.15
49 0.45
5 -0.53
50 0.45
51 0.45
52 0.45
53 0.45
54 0.45
6 -0.53
7 -0.57
8 -0.57

>  <PUBCHEM_PHARMACOPHORE_FEATURES>
16
1 1 donor
1 2 donor
1 3 donor
1 4 donor
1 5 donor
1 6 donor
1 7 acceptor
1 8 acceptor
6 10 12 14 20 22 24 rings
6 11 15 19 25 29 33 rings
6 12 16 20 26 30 34 rings
6 13 17 21 27 31 35 rings
6 14 18 22 28 32 36 rings
6 9 10 11 12 15 16 rings
6 9 10 13 14 17 18 rings
6 9 11 13 19 21 23 rings

>  <PUBCHEM_SHAPE_FINGERPRINT>
10675989 125 18194398016588665341
10967382 1 18410573980861784590
1100329 8 18338797788838864377
11513181 2 18202562856523954462
12788726 201 17902227051119725024
13140716 1 18411980234758873768
1361 2 17834393415430342929
138480 1 17617941335497513320
14117953 113 17978504230875699972
14295345 954 17473281881373637993
14790565 3 18410860961981475845
15320467 1 18194682806863435847
19591789 44 18410575088958364515
19930381 70 18337670939776099219
20028762 73 18056188077985354245
20764821 26 18337674122272798285
20775438 99 17406502308368123415
23559900 14 18339635629615806240
350125 39 18267024955406711448
3882209 13 17978467014948150279
463206 1 17761496193550011432

>  <PUBCHEM_SHAPE_MULTIPOLES>
735.07
8
7.97
0.74
0.18
0.01
0
-0.01
-0.01
0.69
0.01
-0.58
0
0.95

>  <PUBCHEM_SHAPE_SELFOVERLAP>
1773.472

>  <PUBCHEM_SHAPE_VOLUME>
357.3

>  <RI>
-2.21457e+08

>  <Rbt.Current_Directory>
/root/miniconda3/envs/rdock/share/rxdock-2013.1.1_148c5bd1-0/data/ligands/prepped_ligands/Hypericin

>  <Rbt.Executable>
rbdock/0.1.0

>  <Rbt.Library>
librxdock.so/0.1.0

>  <Rbt.Parameter_File>
/root/miniconda3/envs/rdock/share/rxdock-2013.1.1_148c5bd1-0/data/scripts/dock.prm

>  <Rbt.Receptor>
def.prm

>  <SCORE>
-11.8419

>  <SCORE.INTER>
-15.0508

>  <SCORE.INTER.CONST>
1

>  <SCORE.INTER.POLAR>
-1.92696

>  <SCORE.INTER.REPUL>
0.253199

>  <SCORE.INTER.ROT>
0

>  <SCORE.INTER.VDW>
-15.1652

>  <SCORE.INTER.norm>
-0.396075

>  <SCORE.INTRA>
1.27142

>  <SCORE.INTRA.DIHEDRAL>
1.64878

>  <SCORE.INTRA.DIHEDRAL.0>
4.15609

>  <SCORE.INTRA.POLAR>
0.201957

>  <SCORE.INTRA.POLAR.0>
-1.21242

>  <SCORE.INTRA.REPUL>
0.0178287

>  <SCORE.INTRA.REPUL.0>
0

>  <SCORE.INTRA.VDW>
-0.328771

>  <SCORE.INTRA.VDW.0>
2.93348

>  <SCORE.INTRA.norm>
0.0334583

>  <SCORE.RESTR>
2.69878

>  <SCORE.RESTR.CAVITY>
2.69878

>  <SCORE.RESTR.norm>
0.0710206

>  <SCORE.SYSTEM>
-0.761307

>  <SCORE.SYSTEM.CONST>
0

>  <SCORE.SYSTEM.DIHEDRAL>
0.461722

>  <SCORE.SYSTEM.POLAR>
-0.00659273

>  <SCORE.SYSTEM.VDW>
-0.969753

>  <SCORE.SYSTEM.norm>
-0.0200344

>  <SCORE.heavy>
38

>  <SCORE.norm>
-0.31163

$$$$
3663
  RxDock  02242111003D
librxdock.so/0.1.0
 44 51  0  0  0  0  0  0  0  0999 V2000
  -46.6718    0.4385   20.6323 O   0  0  0  0  0  0
  -51.2393   -5.5960   14.4669 O   0  0  0  0  0  0
  -51.1650   -3.7025   21.9940 O   0  0  0  0  0  0
  -51.8311   -5.3599   20.6950 O   0  0  0  0  0  0
  -47.9995   -0.4714   22.5640 O   0  0  0  0  0  0
  -52.4816   -6.6635   16.3747 O   0  0  0  0  0  0
  -45.5829    1.4605   18.6287 O   0  0  0  0  0  0
  -49.7796   -4.6615   12.6671 O   0  0  0  0  0  0
  -48.6385   -2.1629   18.0214 C   0  0  0  0  0  0
  -49.3081   -3.0219   17.1307 C   0  0  0  0  0  0
  -47.6343   -1.2923   17.5286 C   0  0  0  0  0  0
  -49.0503   -2.9238   15.7404 C   0  0  0  0  0  0
  -48.9521   -2.1965   19.4071 C   0  0  0  0  0  0
  -50.2558   -3.9572   17.6278 C   0  0  0  0  0  0
  -47.2920   -1.2868   16.1512 C   0  0  0  0  0  0
  -48.1340   -1.9629   15.2392 C   0  0  0  0  0  0
  -49.9130   -3.1111   19.9126 C   0  0  0  0  0  0
  -50.5615   -4.0154   19.0128 C   0  0  0  0  0  0
  -47.0055   -0.4272   18.4400 C   0  0  0  0  0  0
  -49.7142   -3.8160   14.8815 C   0  0  0  0  0  0
  -48.2878   -1.3038   20.2897 C   0  0  0  0  0  0
  -50.9029   -4.8370   16.7198 C   0  0  0  0  0  0
  -47.3306   -0.4196   19.7957 C   0  0  0  0  0  0
  -50.6164   -4.7662   15.3577 C   0  0  0  0  0  0
  -45.9838   -0.6535   15.7994 C   0  0  0  0  0  0
  -48.2264   -1.6632   13.7770 C   0  0  0  0  0  0
  -50.1726   -3.0745   21.3054 C   0  0  0  0  0  0
  -51.5121   -4.9817   19.4267 C   0  0  0  0  0  0
  -45.9831    0.5211   17.9547 C   0  0  0  0  0  0
  -49.4397   -3.7688   13.4315 C   0  0  0  0  0  0
  -48.5836   -1.3065   21.6553 C   0  0  0  0  0  0
  -51.8306   -5.7744   17.1811 C   0  0  0  0  0  0
  -45.4088    0.2322   16.6287 C   0  0  0  0  0  0
  -48.7920   -2.5422   12.9342 C   0  0  0  0  0  0
  -49.5235   -2.1880   22.1617 C   0  0  0  0  0  0
  -52.1337   -5.8474   18.5299 C   0  0  0  0  0  0
  -45.1771   -1.1222   14.6196 C   0  0  0  0  0  0
  -47.8762   -0.3064   13.2303 C   0  0  0  0  0  0
  -46.3154    1.1910   20.1356 H   0  0  0  0  0  0
  -51.0379   -6.5238   14.6622 H   0  0  0  0  0  0
  -51.0759   -4.6571   21.8346 H   0  0  0  0  0  0
  -51.8582   -6.3253   20.8010 H   0  0  0  0  0  0
  -48.3321   -0.6643   23.4571 H   0  0  0  0  0  0
  -51.8674   -7.3528   16.0702 H   0  0  0  0  0  0
  1 23  1  0  0  0
  1 39  1  0  0  0
  2 24  1  0  0  0
  2 40  1  0  0  0
  3 27  1  0  0  0
  3 41  1  0  0  0
  4 28  1  0  0  0
  4 42  1  0  0  0
  5 31  1  0  0  0
  5 43  1  0  0  0
  6 32  1  0  0  0
  6 44  1  0  0  0
  7 29  2  0  0  0
  8 30  2  0  0  0
  9 10  1  0  0  0
  9 11  2  0  0  0
  9 13  1  0  0  0
 10 12  2  0  0  0
 10 14  1  0  0  0
 11 15  1  0  0  0
 11 19  1  0  0  0
 12 16  1  0  0  0
 12 20  1  0  0  0
 13 17  2  0  0  0
 13 21  1  0  0  0
 14 18  2  0  0  0
 14 22  1  0  0  0
 15 16  2  0  0  0
 15 25  1  0  0  0
 16 26  1  0  0  0
 17 18  1  0  0  0
 17 27  1  0  0  0
 18 28  1  0  0  0
 19 23  2  0  0  0
 19 29  1  0  0  0
 20 24  2  0  0  0
 20 30  1  0  0  0
 21 23  1  0  0  0
 21 31  2  0  0  0
 22 24  1  0  0  0
 22 32  2  0  0  0
 25 33  2  0  0  0
 25 37  1  0  0  0
 26 34  2  0  0  0
 26 38  1  0  0  0
 27 35  2  0  0  0
 28 36  2  0  0  0
 29 33  1  0  0  0
 30 34  1  0  0  0
 31 35  1  0  0  0
 32 36  1  0  0  0
M  END
>  <CHROM.0>
-60.38028733,-60.23953291,51.76604968

>  <CHROM.1>
23.58901534,120.46520078,58.52420763,-132.53645004,-178.22024686,72.03743748
-48.99657800,-2.61804701,17.61437346,-0.80487663,-0.80092279,-1.75226068

>  <Name>
3663

>  <PUBCHEM_ATOM_DEF_STEREO_COUNT>
0

>  <PUBCHEM_ATOM_UDEF_STEREO_COUNT>
0

>  <PUBCHEM_BOND_DEF_STEREO_COUNT>
0

>  <PUBCHEM_BOND_UDEF_STEREO_COUNT>
0

>  <PUBCHEM_CACTVS_TAUTO_COUNT>
991

>  <PUBCHEM_COMPONENT_COUNT>
1

>  <PUBCHEM_COMPOUND_CID>
3663

>  <PUBCHEM_CONFORMER_DIVERSEORDER>
2
1

>  <PUBCHEM_CONFORMER_ID>
00000E4F00000002

>  <PUBCHEM_CONFORMER_RMSD>
0.6

>  <PUBCHEM_COORDINATE_TYPE>
2
5
10

>  <PUBCHEM_EFFECTIVE_ROTOR_COUNT>
0

>  <PUBCHEM_FEATURE_SELFOVERLAP>
81.639

>  <PUBCHEM_HEAVY_ATOM_COUNT>
38

>  <PUBCHEM_ISOTOPIC_ATOM_COUNT>
0

>  <PUBCHEM_MMFF94_ENERGY>
199.63

>  <PUBCHEM_MMFF94_PARTIAL_CHARGES>
38
1 -0.53
15 0.03
16 0.03
19 0.09
2 -0.53
20 0.09
23 0.08
24 0.08
25 -0.17
26 -0.17
27 0.08
28 0.08
29 0.47
3 -0.53
30 0.47
31 0.08
32 0.08
33 -0.14
34 -0.14
35 -0.15
36 -0.15
37 0.14
38 0.14
39 0.15
4 -0.53
40 0.15
41 0.15
42 0.15
49 0.45
5 -0.53
50 0.45
51 0.45
52 0.45
53 0.45
54 0.45
6 -0.53
7 -0.57
8 -0.57

>  <PUBCHEM_PHARMACOPHORE_FEATURES>
16
1 1 donor
1 2 donor
1 3 donor
1 4 donor
1 5 donor
1 6 donor
1 7 acceptor
1 8 acceptor
6 10 12 14 20 22 24 rings
6 11 15 19 25 29 33 rings
6 12 16 20 26 30 34 rings
6 13 17 21 27 31 35 rings
6 14 18 22 28 32 36 rings
6 9 10 11 12 15 16 rings
6 9 10 13 14 17 18 rings
6 9 11 13 19 21 23 rings

>  <PUBCHEM_SHAPE_FINGERPRINT>
10675989 125 18194398016588665341
10967382 1 18410573980861784590
1100329 8 18338797788838864377
11513181 2 18202562856523954462
12788726 201 17902227051119725024
13140716 1 18411980234758873768
1361 2 17834393415430342929
138480 1 17617941335497513320
14117953 113 17978504230875699972
14295345 954 17473281881373637993
14790565 3 18410860961981475845
15320467 1 18194682806863435847
19591789 44 18410575088958364515
19930381 70 18337670939776099219
20028762 73 18056188077985354245
20764821 26 18337674122272798285
20775438 99 17406502308368123415
23559900 14 18339635629615806240
350125 39 18267024955406711448
3882209 13 17978467014948150279
463206 1 17761496193550011432

>  <PUBCHEM_SHAPE_MULTIPOLES>
735.07
8
7.97
0.74
0.18
0.01
0
-0.01
-0.01
0.69
0.01
-0.58
0
0.95

>  <PUBCHEM_SHAPE_SELFOVERLAP>
1773.472

>  <PUBCHEM_SHAPE_VOLUME>
357.3

>  <RI>
-2.21457e+08

>  <Rbt.Current_Directory>
/root/miniconda3/envs/rdock/share/rxdock-2013.1.1_148c5bd1-0/data/ligands/prepped_ligands/Hypericin

>  <Rbt.Executable>
rbdock/0.1.0

>  <Rbt.Library>
librxdock.so/0.1.0

>  <Rbt.Parameter_File>
/root/miniconda3/envs/rdock/share/rxdock-2013.1.1_148c5bd1-0/data/scripts/dock.prm

>  <Rbt.Receptor>
def.prm

>  <SCORE>
-4.54069

>  <SCORE.INTER>
-13.6595

>  <SCORE.INTER.CONST>
1

>  <SCORE.INTER.POLAR>
-1.52959

>  <SCORE.INTER.REPUL>
0

>  <SCORE.INTER.ROT>
0

>  <SCORE.INTER.VDW>
-13.8589

>  <SCORE.INTER.norm>
-0.359461

>  <SCORE.INTRA>
7.29949

>  <SCORE.INTRA.DIHEDRAL>
9.91769

>  <SCORE.INTRA.DIHEDRAL.0>
4.15609

>  <SCORE.INTRA.POLAR>
0.918189

>  <SCORE.INTRA.POLAR.0>
-1.21242

>  <SCORE.INTRA.REPUL>
0.0611128

>  <SCORE.INTRA.REPUL.0>
0

>  <SCORE.INTRA.VDW>
-1.08676

>  <SCORE.INTRA.VDW.0>
2.93348

>  <SCORE.INTRA.norm>
0.192092

>  <SCORE.RESTR>
2.81046

>  <SCORE.RESTR.CAVITY>
2.81046

>  <SCORE.RESTR.norm>
0.0739594

>  <SCORE.SYSTEM>
-0.991118

>  <SCORE.SYSTEM.CONST>
0

>  <SCORE.SYSTEM.DIHEDRAL>
0.172331

>  <SCORE.SYSTEM.VDW>
-1.07728

>  <SCORE.SYSTEM.norm>
-0.026082

>  <SCORE.heavy>
38

>  <SCORE.norm>
-0.119492

$$$$
3663
  RxDock  02242111003D
librxdock.so/0.1.0
 44 51  0  0  0  0  0  0  0  0999 V2000
  -44.4509   -0.1350   18.3703 O   0  0  0  0  0  0
  -53.2191   -4.2741   17.2405 O   0  0  0  0  0  0
  -46.5428   -3.3144   13.3997 O   0  0  0  0  0  0
  -48.6524   -3.8178   12.9825 O   0  0  0  0  0  0
  -43.7629   -0.8786   16.0690 O   0  0  0  0  0  0
  -52.6564   -4.9053   14.8725 O   0  0  0  0  0  0
  -45.1186    0.3423   20.7306 O   0  0  0  0  0  0
  -53.7920   -3.3863   19.5049 O   0  0  0  0  0  0
  -48.1974   -1.9090   17.8519 C   0  0  0  0  0  0
  -49.4555   -2.5191   17.6945 C   0  0  0  0  0  0
  -47.9023   -1.2191   19.0544 C   0  0  0  0  0  0
  -50.3648   -2.5330   18.7818 C   0  0  0  0  0  0
  -47.2478   -1.9635   16.7960 C   0  0  0  0  0  0
  -49.7913   -3.1400   16.4610 C   0  0  0  0  0  0
  -48.8649   -1.1294   20.0935 C   0  0  0  0  0  0
  -50.0148   -1.9486   20.0268 C   0  0  0  0  0  0
  -47.5635   -2.6001   15.5670 C   0  0  0  0  0  0
  -48.8592   -3.1816   15.3912 C   0  0  0  0  0  0
  -46.6266   -0.6459   19.1903 C   0  0  0  0  0  0
  -51.6235   -3.1249   18.5819 C   0  0  0  0  0  0
  -45.9720   -1.3672   16.9801 C   0  0  0  0  0  0
  -51.0755   -3.7269   16.3077 C   0  0  0  0  0  0
  -45.6696   -0.7256   18.1797 C   0  0  0  0  0  0
  -51.9831   -3.7024   17.3651 C   0  0  0  0  0  0
  -48.6271   -0.0714   21.1232 C   0  0  0  0  0  0
  -50.8444   -2.3552   21.2028 C   0  0  0  0  0  0
  -46.5577   -2.6168   14.5686 C   0  0  0  0  0  0
  -49.2760   -3.8129   14.1926 C   0  0  0  0  0  0
  -46.2709    0.0459   20.4453 C   0  0  0  0  0  0
  -52.6103   -3.1220   19.6801 C   0  0  0  0  0  0
  -45.0143   -1.4149   15.9638 C   0  0  0  0  0  0
  -51.4376   -4.3342   15.1026 C   0  0  0  0  0  0
  -47.3968    0.4314   21.3143 C   0  0  0  0  0  0
  -52.0792   -2.8528   21.0280 C   0  0  0  0  0  0
  -45.3054   -2.0383   14.7624 C   0  0  0  0  0  0
  -50.5415   -4.3764   14.0482 C   0  0  0  0  0  0
  -49.7685    0.6017   21.8349 C   0  0  0  0  0  0
  -50.2662   -2.4087   22.5903 C   0  0  0  0  0  0
  -44.5317    0.6274   18.9638 H   0  0  0  0  0  0
  -53.3536   -4.6104   16.3414 H   0  0  0  0  0  0
  -47.3404   -3.0707   12.9007 H   0  0  0  0  0  0
  -49.1829   -4.2469   12.2909 H   0  0  0  0  0  0
  -43.6519   -0.4575   16.9383 H   0  0  0  0  0  0
  -52.5459   -5.7727   14.4476 H   0  0  0  0  0  0
  1 23  1  0  0  0
  1 39  1  0  0  0
  2 24  1  0  0  0
  2 40  1  0  0  0
  3 27  1  0  0  0
  3 41  1  0  0  0
  4 28  1  0  0  0
  4 42  1  0  0  0
  5 31  1  0  0  0
  5 43  1  0  0  0
  6 32  1  0  0  0
  6 44  1  0  0  0
  7 29  2  0  0  0
  8 30  2  0  0  0
  9 10  1  0  0  0
  9 11  2  0  0  0
  9 13  1  0  0  0
 10 12  2  0  0  0
 10 14  1  0  0  0
 11 15  1  0  0  0
 11 19  1  0  0  0
 12 16  1  0  0  0
 12 20  1  0  0  0
 13 17  2  0  0  0
 13 21  1  0  0  0
 14 18  2  0  0  0
 14 22  1  0  0  0
 15 16  2  0  0  0
 15 25  1  0  0  0
 16 26  1  0  0  0
 17 18  1  0  0  0
 17 27  1  0  0  0
 18 28  1  0  0  0
 19 23  2  0  0  0
 19 29  1  0  0  0
 20 24  2  0  0  0
 20 30  1  0  0  0
 21 23  1  0  0  0
 21 31  2  0  0  0
 22 24  1  0  0  0
 22 32  2  0  0  0
 25 33  2  0  0  0
 25 37  1  0  0  0
 26 34  2  0  0  0
 26 38  1  0  0  0
 27 35  2  0  0  0
 28 36  2  0  0  0
 29 33  1  0  0  0
 30 34  1  0  0  0
 31 35  1  0  0  0
 32 36  1  0  0  0
M  END
>  <CHROM.0>
-173.68442793,63.54460661,53.91549704

>  <CHROM.1>
-28.93408336,178.09971275,56.66291636,-174.14898857,-0.78056695,-134.17672902
-48.81689689,-2.22770512,17.72501737,-0.33466839,-0.38210548,-1.96070447

>  <Name>
3663

>  <PUBCHEM_ATOM_DEF_STEREO_COUNT>
0

>  <PUBCHEM_ATOM_UDEF_STEREO_COUNT>
0

>  <PUBCHEM_BOND_DEF_STEREO_COUNT>
0

>  <PUBCHEM_BOND_UDEF_STEREO_COUNT>
0

>  <PUBCHEM_CACTVS_TAUTO_COUNT>
991

>  <PUBCHEM_COMPONENT_COUNT>
1

>  <PUBCHEM_COMPOUND_CID>
3663

>  <PUBCHEM_CONFORMER_DIVERSEORDER>
2
1

>  <PUBCHEM_CONFORMER_ID>
00000E4F00000002

>  <PUBCHEM_CONFORMER_RMSD>
0.6

>  <PUBCHEM_COORDINATE_TYPE>
2
5
10

>  <PUBCHEM_EFFECTIVE_ROTOR_COUNT>
0

>  <PUBCHEM_FEATURE_SELFOVERLAP>
81.639

>  <PUBCHEM_HEAVY_ATOM_COUNT>
38

>  <PUBCHEM_ISOTOPIC_ATOM_COUNT>
0

>  <PUBCHEM_MMFF94_ENERGY>
199.63

>  <PUBCHEM_MMFF94_PARTIAL_CHARGES>
38
1 -0.53
15 0.03
16 0.03
19 0.09
2 -0.53
20 0.09
23 0.08
24 0.08
25 -0.17
26 -0.17
27 0.08
28 0.08
29 0.47
3 -0.53
30 0.47
31 0.08
32 0.08
33 -0.14
34 -0.14
35 -0.15
36 -0.15
37 0.14
38 0.14
39 0.15
4 -0.53
40 0.15
41 0.15
42 0.15
49 0.45
5 -0.53
50 0.45
51 0.45
52 0.45
53 0.45
54 0.45
6 -0.53
7 -0.57
8 -0.57

>  <PUBCHEM_PHARMACOPHORE_FEATURES>
16
1 1 donor
1 2 donor
1 3 donor
1 4 donor
1 5 donor
1 6 donor
1 7 acceptor
1 8 acceptor
6 10 12 14 20 22 24 rings
6 11 15 19 25 29 33 rings
6 12 16 20 26 30 34 rings
6 13 17 21 27 31 35 rings
6 14 18 22 28 32 36 rings
6 9 10 11 12 15 16 rings
6 9 10 13 14 17 18 rings
6 9 11 13 19 21 23 rings

>  <PUBCHEM_SHAPE_FINGERPRINT>
10675989 125 18194398016588665341
10967382 1 18410573980861784590
1100329 8 18338797788838864377
11513181 2 18202562856523954462
12788726 201 17902227051119725024
13140716 1 18411980234758873768
1361 2 17834393415430342929
138480 1 17617941335497513320
14117953 113 17978504230875699972
14295345 954 17473281881373637993
14790565 3 18410860961981475845
15320467 1 18194682806863435847
19591789 44 18410575088958364515
19930381 70 18337670939776099219
20028762 73 18056188077985354245
20764821 26 18337674122272798285
20775438 99 17406502308368123415
23559900 14 18339635629615806240
350125 39 18267024955406711448
3882209 13 17978467014948150279
463206 1 17761496193550011432

>  <PUBCHEM_SHAPE_MULTIPOLES>
735.07
8
7.97
0.74
0.18
0.01
0
-0.01
-0.01
0.69
0.01
-0.58
0
0.95

>  <PUBCHEM_SHAPE_SELFOVERLAP>
1773.472

>  <PUBCHEM_SHAPE_VOLUME>
357.3

>  <RI>
-2.21457e+08

>  <Rbt.Current_Directory>
/root/miniconda3/envs/rdock/share/rxdock-2013.1.1_148c5bd1-0/data/ligands/prepped_ligands/Hypericin

>  <Rbt.Executable>
rbdock/0.1.0

>  <Rbt.Library>
librxdock.so/0.1.0

>  <Rbt.Parameter_File>
/root/miniconda3/envs/rdock/share/rxdock-2013.1.1_148c5bd1-0/data/scripts/dock.prm

>  <Rbt.Receptor>
def.prm

>  <SCORE>
-7.86809

>  <SCORE.INTER>
-7.23276

>  <SCORE.INTER.CONST>
1

>  <SCORE.INTER.POLAR>
-0.200164

>  <SCORE.INTER.REPUL>
0.00181362

>  <SCORE.INTER.ROT>
0

>  <SCORE.INTER.VDW>
-11.9613

>  <SCORE.INTER.norm>
-0.190336

>  <SCORE.INTRA>
-2.06109

>  <SCORE.INTRA.DIHEDRAL>
2.54976

>  <SCORE.INTRA.DIHEDRAL.0>
4.15609

>  <SCORE.INTRA.POLAR>
-0.850308

>  <SCORE.INTRA.POLAR.0>
-1.21242

>  <SCORE.INTRA.REPUL>
0

>  <SCORE.INTRA.REPUL.0>
0

>  <SCORE.INTRA.VDW>
-0.444918

>  <SCORE.INTRA.VDW.0>
2.93348

>  <SCORE.INTRA.norm>
-0.0542392

>  <SCORE.RESTR>
2.34289

>  <SCORE.RESTR.CAVITY>
2.34289

>  <SCORE.RESTR.norm>
0.0616551

>  <SCORE.SYSTEM>
-0.917131

>  <SCORE.SYSTEM.CONST>
0

>  <SCORE.SYSTEM.DIHEDRAL>
0.250409

>  <SCORE.SYSTEM.VDW>
-1.04234

>  <SCORE.SYSTEM.norm>
-0.024135

>  <SCORE.heavy>
38

>  <SCORE.norm>
-0.207055

$$$$
3663
  RxDock  02242111003D
librxdock.so/0.1.0
 44 51  0  0  0  0  0  0  0  0999 V2000
  -49.7563   -0.6604   22.2274 O   0  0  0  0  0  0
  -46.4719   -3.2357   13.4030 O   0  0  0  0  0  0
  -53.0844   -2.9808   17.4597 O   0  0  0  0  0  0
  -52.2574   -3.9849   15.6748 O   0  0  0  0  0  0
  -52.0908   -1.3528   21.6008 O   0  0  0  0  0  0
  -48.7467   -4.0988   12.7681 O   0  0  0  0  0  0
  -47.4684    0.2374   22.6795 O   0  0  0  0  0  0
  -44.1924   -2.5958   14.2017 O   0  0  0  0  0  0
  -48.3809   -1.7804   18.4450 C   0  0  0  0  0  0
  -47.9109   -2.1372   17.1678 C   0  0  0  0  0  0
  -47.4706   -1.2756   19.4073 C   0  0  0  0  0  0
  -46.5596   -1.8806   16.8249 C   0  0  0  0  0  0
  -49.7535   -1.9566   18.7685 C   0  0  0  0  0  0
  -48.7990   -2.7226   16.2252 C   0  0  0  0  0  0
  -46.0923   -1.1373   19.0986 C   0  0  0  0  0  0
  -45.6823   -1.2593   17.7514 C   0  0  0  0  0  0
  -50.6551   -2.5199   17.8276 C   0  0  0  0  0  0
  -50.1675   -2.9240   16.5443 C   0  0  0  0  0  0
  -47.9780   -0.9019   20.6632 C   0  0  0  0  0  0
  -46.1153   -2.2758   15.5518 C   0  0  0  0  0  0
  -50.2185   -1.5657   20.0522 C   0  0  0  0  0  0
  -48.3033   -3.1035   14.9499 C   0  0  0  0  0  0
  -49.3290   -1.0307   20.9821 C   0  0  0  0  0  0
  -46.9640   -2.8879   14.6305 C   0  0  0  0  0  0
  -45.1671   -0.9891   20.2641 C   0  0  0  0  0  0
  -44.4289   -0.6743   17.1827 C   0  0  0  0  0  0
  -52.0083   -2.6542   18.2270 C   0  0  0  0  0  0
  -50.9836   -3.5207   15.5510 C   0  0  0  0  0  0
  -47.0654   -0.3350   21.6761 C   0  0  0  0  0  0
  -44.7040   -2.0602   15.1755 C   0  0  0  0  0  0
  -51.5648   -1.7168   20.3943 C   0  0  0  0  0  0
  -49.1505   -3.6916   14.0073 C   0  0  0  0  0  0
  -45.6267   -0.5608   21.4508 C   0  0  0  0  0  0
  -43.9530   -1.0976   16.0007 C   0  0  0  0  0  0
  -52.4572   -2.2582   19.4848 C   0  0  0  0  0  0
  -50.4859   -3.9005   14.3068 C   0  0  0  0  0  0
  -43.7510   -1.4933   20.2110 C   0  0  0  0  0  0
  -43.7719    0.5278   17.8035 C   0  0  0  0  0  0
  -49.1565   -0.0020   22.6107 H   0  0  0  0  0  0
  -47.1331   -3.7298   12.8947 H   0  0  0  0  0  0
  -53.6872   -3.5109   18.0076 H   0  0  0  0  0  0
  -52.8583   -3.3273   16.0629 H   0  0  0  0  0  0
  -51.7927   -1.9661   22.2939 H   0  0  0  0  0  0
  -49.5081   -4.4181   12.2549 H   0  0  0  0  0  0
  1 23  1  0  0  0
  1 39  1  0  0  0
  2 24  1  0  0  0
  2 40  1  0  0  0
  3 27  1  0  0  0
  3 41  1  0  0  0
  4 28  1  0  0  0
  4 42  1  0  0  0
  5 31  1  0  0  0
  5 43  1  0  0  0
  6 32  1  0  0  0
  6 44  1  0  0  0
  7 29  2  0  0  0
  8 30  2  0  0  0
  9 10  1  0  0  0
  9 11  2  0  0  0
  9 13  1  0  0  0
 10 12  2  0  0  0
 10 14  1  0  0  0
 11 15  1  0  0  0
 11 19  1  0  0  0
 12 16  1  0  0  0
 12 20  1  0  0  0
 13 17  2  0  0  0
 13 21  1  0  0  0
 14 18  2  0  0  0
 14 22  1  0  0  0
 15 16  2  0  0  0
 15 25  1  0  0  0
 16 26  1  0  0  0
 17 18  1  0  0  0
 17 27  1  0  0  0
 18 28  1  0  0  0
 19 23  2  0  0  0
 19 29  1  0  0  0
 20 24  2  0  0  0
 20 30  1  0  0  0
 21 23  1  0  0  0
 21 31  2  0  0  0
 22 24  1  0  0  0
 22 32  2  0  0  0
 25 33  2  0  0  0
 25 37  1  0  0  0
 26 34  2  0  0  0
 26 38  1  0  0  0
 27 35  2  0  0  0
 28 36  2  0  0  0
 29 33  1  0  0  0
 30 34  1  0  0  0
 31 35  1  0  0  0
 32 36  1  0  0  0
M  END
>  <CHROM.0>
74.62459135,177.80540998,57.57563310

>  <CHROM.1>
24.94105468,174.27757318,145.24105173,52.02140303,-71.69279500,-175.83881971
-48.19461464,-1.97568765,17.79609180,1.89959366,0.21906503,1.21956664

>  <Name>
3663

>  <PUBCHEM_ATOM_DEF_STEREO_COUNT>
0

>  <PUBCHEM_ATOM_UDEF_STEREO_COUNT>
0

>  <PUBCHEM_BOND_DEF_STEREO_COUNT>
0

>  <PUBCHEM_BOND_UDEF_STEREO_COUNT>
0

>  <PUBCHEM_CACTVS_TAUTO_COUNT>
991

>  <PUBCHEM_COMPONENT_COUNT>
1

>  <PUBCHEM_COMPOUND_CID>
3663

>  <PUBCHEM_CONFORMER_DIVERSEORDER>
2
1

>  <PUBCHEM_CONFORMER_ID>
00000E4F00000002

>  <PUBCHEM_CONFORMER_RMSD>
0.6

>  <PUBCHEM_COORDINATE_TYPE>
2
5
10

>  <PUBCHEM_EFFECTIVE_ROTOR_COUNT>
0

>  <PUBCHEM_FEATURE_SELFOVERLAP>
81.639

>  <PUBCHEM_HEAVY_ATOM_COUNT>
38

>  <PUBCHEM_ISOTOPIC_ATOM_COUNT>
0

>  <PUBCHEM_MMFF94_ENERGY>
199.63

>  <PUBCHEM_MMFF94_PARTIAL_CHARGES>
38
1 -0.53
15 0.03
16 0.03
19 0.09
2 -0.53
20 0.09
23 0.08
24 0.08
25 -0.17
26 -0.17
27 0.08
28 0.08
29 0.47
3 -0.53
30 0.47
31 0.08
32 0.08
33 -0.14
34 -0.14
35 -0.15
36 -0.15
37 0.14
38 0.14
39 0.15
4 -0.53
40 0.15
41 0.15
42 0.15
49 0.45
5 -0.53
50 0.45
51 0.45
52 0.45
53 0.45
54 0.45
6 -0.53
7 -0.57
8 -0.57

>  <PUBCHEM_PHARMACOPHORE_FEATURES>
16
1 1 donor
1 2 donor
1 3 donor
1 4 donor
1 5 donor
1 6 donor
1 7 acceptor
1 8 acceptor
6 10 12 14 20 22 24 rings
6 11 15 19 25 29 33 rings
6 12 16 20 26 30 34 rings
6 13 17 21 27 31 35 rings
6 14 18 22 28 32 36 rings
6 9 10 11 12 15 16 rings
6 9 10 13 14 17 18 rings
6 9 11 13 19 21 23 rings

>  <PUBCHEM_SHAPE_FINGERPRINT>
10675989 125 18194398016588665341
10967382 1 18410573980861784590
1100329 8 18338797788838864377
11513181 2 18202562856523954462
12788726 201 17902227051119725024
13140716 1 18411980234758873768
1361 2 17834393415430342929
138480 1 17617941335497513320
14117953 113 17978504230875699972
14295345 954 17473281881373637993
14790565 3 18410860961981475845
15320467 1 18194682806863435847
19591789 44 18410575088958364515
19930381 70 18337670939776099219
20028762 73 18056188077985354245
20764821 26 18337674122272798285
20775438 99 17406502308368123415
23559900 14 18339635629615806240
350125 39 18267024955406711448
3882209 13 17978467014948150279
463206 1 17761496193550011432

>  <PUBCHEM_SHAPE_MULTIPOLES>
735.07
8
7.97
0.74
0.18
0.01
0
-0.01
-0.01
0.69
0.01
-0.58
0
0.95

>  <PUBCHEM_SHAPE_SELFOVERLAP>
1773.472

>  <PUBCHEM_SHAPE_VOLUME>
357.3

>  <RI>
-2.21457e+08

>  <Rbt.Current_Directory>
/root/miniconda3/envs/rdock/share/rxdock-2013.1.1_148c5bd1-0/data/ligands/prepped_ligands/Hypericin

>  <Rbt.Executable>
rbdock/0.1.0

>  <Rbt.Library>
librxdock.so/0.1.0

>  <Rbt.Parameter_File>
/root/miniconda3/envs/rdock/share/rxdock-2013.1.1_148c5bd1-0/data/scripts/dock.prm

>  <Rbt.Receptor>
def.prm

>  <SCORE>
-5.12167

>  <SCORE.INTER>
-9.13929

>  <SCORE.INTER.CONST>
1

>  <SCORE.INTER.POLAR>
-0.18634

>  <SCORE.INTER.REPUL>
0

>  <SCORE.INTER.ROT>
0

>  <SCORE.INTER.VDW>
-13.9057

>  <SCORE.INTER.norm>
-0.240508

>  <SCORE.INTRA>
2.23419

>  <SCORE.INTRA.DIHEDRAL>
5.5913

>  <SCORE.INTRA.DIHEDRAL.0>
4.15609

>  <SCORE.INTRA.POLAR>
0.0512345

>  <SCORE.INTRA.POLAR.0>
-1.21242

>  <SCORE.INTRA.REPUL>
0

>  <SCORE.INTRA.REPUL.0>
0

>  <SCORE.INTRA.VDW>
-0.735661

>  <SCORE.INTRA.VDW.0>
2.93348

>  <SCORE.INTRA.norm>
0.0587944

>  <SCORE.RESTR>
2.49492

>  <SCORE.RESTR.CAVITY>
2.49492

>  <SCORE.RESTR.norm>
0.0656559

>  <SCORE.SYSTEM>
-0.711492

>  <SCORE.SYSTEM.CONST>
0

>  <SCORE.SYSTEM.DIHEDRAL>
0.533024

>  <SCORE.SYSTEM.VDW>
-0.978004

>  <SCORE.SYSTEM.norm>
-0.0187235

>  <SCORE.heavy>
38

>  <SCORE.norm>
-0.134781

$$$$
