3663
  RxDock  02242109503D
librxdock.so/0.1.0
 44 51  0  0  0  0  0  0  0  0999 V2000
  -46.7417    0.5596   20.6207 O   0  0  0  0  0  0
  -51.0117   -5.6678   14.4340 O   0  0  0  0  0  0
  -51.0410   -3.7879   21.9647 O   0  0  0  0  0  0
  -51.6268   -5.4718   20.6611 O   0  0  0  0  0  0
  -48.0298   -0.4147   22.5478 O   0  0  0  0  0  0
  -52.2072   -6.7955   16.3370 O   0  0  0  0  0  0
  -45.6971    1.6350   18.6214 O   0  0  0  0  0  0
  -49.5931   -4.6630   12.6391 O   0  0  0  0  0  0
  -48.5803   -2.1249   18.0006 C   0  0  0  0  0  0
  -49.2075   -3.0123   17.1068 C   0  0  0  0  0  0
  -47.6165   -1.2077   17.5116 C   0  0  0  0  0  0
  -48.9516   -2.8995   15.7172 C   0  0  0  0  0  0
  -48.8949   -2.1758   19.3855 C   0  0  0  0  0  0
  -50.1119   -3.9914   17.6000 C   0  0  0  0  0  0
  -47.2719   -1.1836   16.1350 C   0  0  0  0  0  0
  -48.0798   -1.8962   15.2199 C   0  0  0  0  0  0
  -49.8134   -3.1349   19.8872 C   0  0  0  0  0  0
  -50.4174   -4.0665   18.9843 C   0  0  0  0  0  0
  -47.0304   -0.3163   18.4260 C   0  0  0  0  0  0
  -49.5716   -3.8199   14.8552 C   0  0  0  0  0  0
  -48.2745   -1.2550   20.2713 C   0  0  0  0  0  0
  -50.7156   -4.8984   16.6890 C   0  0  0  0  0  0
  -47.3582   -0.3264   19.7810 C   0  0  0  0  0  0
  -50.4298   -4.8118   15.3276 C   0  0  0  0  0  0
  -45.9937   -0.4897   15.7872 C   0  0  0  0  0  0
  -48.1828   -1.5982   13.7580 C   0  0  0  0  0  0
  -50.0773   -3.1132   21.2795 C   0  0  0  0  0  0
  -51.3230   -5.0767   19.3943 C   0  0  0  0  0  0
  -46.0520    0.6794   17.9448 C   0  0  0  0  0  0
  -49.2966   -3.7571   13.4059 C   0  0  0  0  0  0
  -48.5727   -1.2742   21.6362 C   0  0  0  0  0  0
  -51.5998   -5.8788   17.1465 C   0  0  0  0  0  0
  -45.4621    0.4201   16.6195 C   0  0  0  0  0  0
  -48.7053   -2.5008   12.9124 C   0  0  0  0  0  0
  -49.4718   -2.1993   22.1389 C   0  0  0  0  0  0
  -51.9020   -5.9685   18.4945 C   0  0  0  0  0  0
  -45.1637   -0.9182   14.6083 C   0  0  0  0  0  0
  -47.8948   -0.2256   13.2147 C   0  0  0  0  0  0
  -46.1730    1.1639   20.1192 H   0  0  0  0  0  0
  -51.3710   -6.4459   14.8868 H   0  0  0  0  0  0
  -51.7619   -3.9842   21.3432 H   0  0  0  0  0  0
  -51.9342   -6.3926   20.7014 H   0  0  0  0  0  0
  -47.4967    0.2602   22.0944 H   0  0  0  0  0  0
  -52.2472   -7.6601   16.7797 H   0  0  0  0  0  0
  1 23  1  0  0  0
  1 39  1  0  0  0
  2 24  1  0  0  0
  2 40  1  0  0  0
  3 27  1  0  0  0
  3 41  1  0  0  0
  4 28  1  0  0  0
  4 42  1  0  0  0
  5 31  1  0  0  0
  5 43  1  0  0  0
  6 32  1  0  0  0
  6 44  1  0  0  0
  7 29  2  0  0  0
  8 30  2  0  0  0
  9 10  1  0  0  0
  9 11  2  0  0  0
  9 13  1  0  0  0
 10 12  2  0  0  0
 10 14  1  0  0  0
 11 15  1  0  0  0
 11 19  1  0  0  0
 12 16  1  0  0  0
 12 20  1  0  0  0
 13 17  2  0  0  0
 13 21  1  0  0  0
 14 18  2  0  0  0
 14 22  1  0  0  0
 15 16  2  0  0  0
 15 25  1  0  0  0
 16 26  1  0  0  0
 17 18  1  0  0  0
 17 27  1  0  0  0
 18 28  1  0  0  0
 19 23  2  0  0  0
 19 29  1  0  0  0
 20 24  2  0  0  0
 20 30  1  0  0  0
 21 23  1  0  0  0
 21 31  2  0  0  0
 22 24  1  0  0  0
 22 32  2  0  0  0
 25 33  2  0  0  0
 25 37  1  0  0  0
 26 34  2  0  0  0
 26 38  1  0  0  0
 27 35  2  0  0  0
 28 36  2  0  0  0
 29 33  1  0  0  0
 30 34  1  0  0  0
 31 35  1  0  0  0
 32 36  1  0  0  0
M  END
>  <CHROM.0>
-67.57765536,178.60713358,50.11369258

>  <CHROM.1>
4.78261306,163.91852165,-24.57457229,-153.99928735,6.37294946,141.14546226
-48.91870830,-2.59246295,17.59018643,0.77270613,0.84386934,1.37914942

>  <Name>
3663

>  <PUBCHEM_ATOM_DEF_STEREO_COUNT>
0

>  <PUBCHEM_ATOM_UDEF_STEREO_COUNT>
0

>  <PUBCHEM_BOND_DEF_STEREO_COUNT>
0

>  <PUBCHEM_BOND_UDEF_STEREO_COUNT>
0

>  <PUBCHEM_CACTVS_TAUTO_COUNT>
991

>  <PUBCHEM_COMPONENT_COUNT>
1

>  <PUBCHEM_COMPOUND_CID>
3663

>  <PUBCHEM_CONFORMER_DIVERSEORDER>
2
1

>  <PUBCHEM_CONFORMER_ID>
00000E4F00000002

>  <PUBCHEM_CONFORMER_RMSD>
0.6

>  <PUBCHEM_COORDINATE_TYPE>
2
5
10

>  <PUBCHEM_EFFECTIVE_ROTOR_COUNT>
0

>  <PUBCHEM_FEATURE_SELFOVERLAP>
81.639

>  <PUBCHEM_HEAVY_ATOM_COUNT>
38

>  <PUBCHEM_ISOTOPIC_ATOM_COUNT>
0

>  <PUBCHEM_MMFF94_ENERGY>
199.63

>  <PUBCHEM_MMFF94_PARTIAL_CHARGES>
38
1 -0.53
15 0.03
16 0.03
19 0.09
2 -0.53
20 0.09
23 0.08
24 0.08
25 -0.17
26 -0.17
27 0.08
28 0.08
29 0.47
3 -0.53
30 0.47
31 0.08
32 0.08
33 -0.14
34 -0.14
35 -0.15
36 -0.15
37 0.14
38 0.14
39 0.15
4 -0.53
40 0.15
41 0.15
42 0.15
49 0.45
5 -0.53
50 0.45
51 0.45
52 0.45
53 0.45
54 0.45
6 -0.53
7 -0.57
8 -0.57

>  <PUBCHEM_PHARMACOPHORE_FEATURES>
16
1 1 donor
1 2 donor
1 3 donor
1 4 donor
1 5 donor
1 6 donor
1 7 acceptor
1 8 acceptor
6 10 12 14 20 22 24 rings
6 11 15 19 25 29 33 rings
6 12 16 20 26 30 34 rings
6 13 17 21 27 31 35 rings
6 14 18 22 28 32 36 rings
6 9 10 11 12 15 16 rings
6 9 10 13 14 17 18 rings
6 9 11 13 19 21 23 rings

>  <PUBCHEM_SHAPE_FINGERPRINT>
10675989 125 18194398016588665341
10967382 1 18410573980861784590
1100329 8 18338797788838864377
11513181 2 18202562856523954462
12788726 201 17902227051119725024
13140716 1 18411980234758873768
1361 2 17834393415430342929
138480 1 17617941335497513320
14117953 113 17978504230875699972
14295345 954 17473281881373637993
14790565 3 18410860961981475845
15320467 1 18194682806863435847
19591789 44 18410575088958364515
19930381 70 18337670939776099219
20028762 73 18056188077985354245
20764821 26 18337674122272798285
20775438 99 17406502308368123415
23559900 14 18339635629615806240
350125 39 18267024955406711448
3882209 13 17978467014948150279
463206 1 17761496193550011432

>  <PUBCHEM_SHAPE_MULTIPOLES>
735.07
8
7.97
0.74
0.18
0.01
0
-0.01
-0.01
0.69
0.01
-0.58
0
0.95

>  <PUBCHEM_SHAPE_SELFOVERLAP>
1773.472

>  <PUBCHEM_SHAPE_VOLUME>
357.3

>  <RI>
-9.9617e+08

>  <Rbt.Current_Directory>
/root/miniconda3/envs/rdock/share/rxdock-2013.1.1_148c5bd1-0/data/ligands/prepped_ligands/Hypericin

>  <Rbt.Executable>
rbdock/0.1.0

>  <Rbt.Library>
librxdock.so/0.1.0

>  <Rbt.Parameter_File>
/root/miniconda3/envs/rdock/share/rxdock-2013.1.1_148c5bd1-0/data/scripts/dock.prm

>  <Rbt.Receptor>
def.prm

>  <SCORE>
-11.6214

>  <SCORE.INTER>
-11.7681

>  <SCORE.INTER.CONST>
1

>  <SCORE.INTER.POLAR>
-0.806821

>  <SCORE.INTER.REPUL>
4.24737e-06

>  <SCORE.INTER.ROT>
0

>  <SCORE.INTER.VDW>
-14.4249

>  <SCORE.INTER.norm>
-0.309686

>  <SCORE.INTRA>
-1.63303

>  <SCORE.INTRA.DIHEDRAL>
0.030885

>  <SCORE.INTRA.DIHEDRAL.0>
4.15609

>  <SCORE.INTRA.POLAR>
-0.616349

>  <SCORE.INTRA.POLAR.0>
-1.21242

>  <SCORE.INTRA.REPUL>
0

>  <SCORE.INTRA.REPUL.0>
0

>  <SCORE.INTRA.VDW>
0.447116

>  <SCORE.INTRA.VDW.0>
2.93348

>  <SCORE.INTRA.norm>
-0.0429744

>  <SCORE.RESTR>
2.64107

>  <SCORE.RESTR.CAVITY>
2.64107

>  <SCORE.RESTR.norm>
0.0695019

>  <SCORE.SYSTEM>
-0.861371

>  <SCORE.SYSTEM.CONST>
0

>  <SCORE.SYSTEM.DIHEDRAL>
0.398568

>  <SCORE.SYSTEM.VDW>
-1.06066

>  <SCORE.SYSTEM.norm>
-0.0226677

>  <SCORE.heavy>
38

>  <SCORE.norm>
-0.305826

$$$$
3663
  RxDock  02242109503D
librxdock.so/0.1.0
 44 51  0  0  0  0  0  0  0  0999 V2000
  -43.4967   -1.1934   18.1288 O   0  0  0  0  0  0
  -53.0572   -2.9801   17.2955 O   0  0  0  0  0  0
  -46.5310   -3.3924   13.1139 O   0  0  0  0  0  0
  -48.7162   -3.3353   12.7984 O   0  0  0  0  0  0
  -43.1182   -1.9099   15.7486 O   0  0  0  0  0  0
  -52.7752   -3.5527   14.8634 O   0  0  0  0  0  0
  -43.9187   -0.7436   20.5505 O   0  0  0  0  0  0
  -53.2903   -2.1494   19.6405 O   0  0  0  0  0  0
  -47.5847   -1.9595   17.7369 C   0  0  0  0  0  0
  -48.9602   -2.2319   17.6211 C   0  0  0  0  0  0
  -47.0744   -1.4528   18.9584 C   0  0  0  0  0  0
  -49.7948   -2.1045   18.7597 C   0  0  0  0  0  0
  -46.7266   -2.1652   16.6229 C   0  0  0  0  0  0
  -49.4943   -2.6596   16.3754 C   0  0  0  0  0  0
  -47.9371   -1.2087   20.0586 C   0  0  0  0  0  0
  -49.2555   -1.7163   20.0137 C   0  0  0  0  0  0
  -47.2448   -2.6134   15.3795 C   0  0  0  0  0  0
  -48.6505   -2.8476   15.2494 C   0  0  0  0  0  0
  -45.6919   -1.2188   19.0495 C   0  0  0  0  0  0
  -51.1683   -2.3559   18.6027 C   0  0  0  0  0  0
  -45.3361   -1.9124   16.7634 C   0  0  0  0  0  0
  -50.8892   -2.9035   16.2667 C   0  0  0  0  0  0
  -44.8308   -1.4540   17.9787 C   0  0  0  0  0  0
  -51.7140   -2.7371   17.3777 C   0  0  0  0  0  0
  -47.3992   -0.3193   21.1337 C   0  0  0  0  0  0
  -50.1059   -1.9946   21.2121 C   0  0  0  0  0  0
  -46.3204   -2.8004   14.3216 C   0  0  0  0  0  0
  -49.2640   -3.2682   14.0429 C   0  0  0  0  0  0
  -45.1200   -0.7289   20.3196 C   0  0  0  0  0  0
  -52.0733   -2.1942   19.7580 C   0  0  0  0  0  0
  -44.4667   -2.1164   15.6888 C   0  0  0  0  0  0
  -51.4440   -3.3138   15.0518 C   0  0  0  0  0  0
  -46.0755   -0.1464   21.2784 C   0  0  0  0  0  0
  -51.4319   -2.1625   21.0842 C   0  0  0  0  0  0
  -44.9566   -2.5599   14.4722 C   0  0  0  0  0  0
  -50.6347   -3.4948   13.9433 C   0  0  0  0  0  0
  -48.3057    0.5568   21.9541 C   0  0  0  0  0  0
  -49.4967   -2.2895   22.5553 C   0  0  0  0  0  0
  -43.0140   -1.4129   17.3171 H   0  0  0  0  0  0
  -53.5376   -2.4927   17.9820 H   0  0  0  0  0  0
  -47.2858   -3.9970   13.2096 H   0  0  0  0  0  0
  -48.7180   -2.4771   12.3430 H   0  0  0  0  0  0
  -42.6449   -2.7070   15.4554 H   0  0  0  0  0  0
  -53.2651   -3.3921   15.6876 H   0  0  0  0  0  0
  1 23  1  0  0  0
  1 39  1  0  0  0
  2 24  1  0  0  0
  2 40  1  0  0  0
  3 27  1  0  0  0
  3 41  1  0  0  0
  4 28  1  0  0  0
  4 42  1  0  0  0
  5 31  1  0  0  0
  5 43  1  0  0  0
  6 32  1  0  0  0
  6 44  1  0  0  0
  7 29  2  0  0  0
  8 30  2  0  0  0
  9 10  1  0  0  0
  9 11  2  0  0  0
  9 13  1  0  0  0
 10 12  2  0  0  0
 10 14  1  0  0  0
 11 15  1  0  0  0
 11 19  1  0  0  0
 12 16  1  0  0  0
 12 20  1  0  0  0
 13 17  2  0  0  0
 13 21  1  0  0  0
 14 18  2  0  0  0
 14 22  1  0  0  0
 15 16  2  0  0  0
 15 25  1  0  0  0
 16 26  1  0  0  0
 17 18  1  0  0  0
 17 27  1  0  0  0
 18 28  1  0  0  0
 19 23  2  0  0  0
 19 29  1  0  0  0
 20 24  2  0  0  0
 20 30  1  0  0  0
 21 23  1  0  0  0
 21 31  2  0  0  0
 22 24  1  0  0  0
 22 32  2  0  0  0
 25 33  2  0  0  0
 25 37  1  0  0  0
 26 34  2  0  0  0
 26 38  1  0  0  0
 27 35  2  0  0  0
 28 36  2  0  0  0
 29 33  1  0  0  0
 30 34  1  0  0  0
 31 35  1  0  0  0
 32 36  1  0  0  0
M  END
>  <CHROM.0>
83.32971616,64.42262942,-57.82171263

>  <CHROM.1>
179.13456821,25.39445684,-23.67164198,-82.07395400,126.43311287,0.25246897
-48.26753538,-2.10827105,17.63160969,0.10104300,0.16274208,1.28658024

>  <Name>
3663

>  <PUBCHEM_ATOM_DEF_STEREO_COUNT>
0

>  <PUBCHEM_ATOM_UDEF_STEREO_COUNT>
0

>  <PUBCHEM_BOND_DEF_STEREO_COUNT>
0

>  <PUBCHEM_BOND_UDEF_STEREO_COUNT>
0

>  <PUBCHEM_CACTVS_TAUTO_COUNT>
991

>  <PUBCHEM_COMPONENT_COUNT>
1

>  <PUBCHEM_COMPOUND_CID>
3663

>  <PUBCHEM_CONFORMER_DIVERSEORDER>
2
1

>  <PUBCHEM_CONFORMER_ID>
00000E4F00000002

>  <PUBCHEM_CONFORMER_RMSD>
0.6

>  <PUBCHEM_COORDINATE_TYPE>
2
5
10

>  <PUBCHEM_EFFECTIVE_ROTOR_COUNT>
0

>  <PUBCHEM_FEATURE_SELFOVERLAP>
81.639

>  <PUBCHEM_HEAVY_ATOM_COUNT>
38

>  <PUBCHEM_ISOTOPIC_ATOM_COUNT>
0

>  <PUBCHEM_MMFF94_ENERGY>
199.63

>  <PUBCHEM_MMFF94_PARTIAL_CHARGES>
38
1 -0.53
15 0.03
16 0.03
19 0.09
2 -0.53
20 0.09
23 0.08
24 0.08
25 -0.17
26 -0.17
27 0.08
28 0.08
29 0.47
3 -0.53
30 0.47
31 0.08
32 0.08
33 -0.14
34 -0.14
35 -0.15
36 -0.15
37 0.14
38 0.14
39 0.15
4 -0.53
40 0.15
41 0.15
42 0.15
49 0.45
5 -0.53
50 0.45
51 0.45
52 0.45
53 0.45
54 0.45
6 -0.53
7 -0.57
8 -0.57

>  <PUBCHEM_PHARMACOPHORE_FEATURES>
16
1 1 donor
1 2 donor
1 3 donor
1 4 donor
1 5 donor
1 6 donor
1 7 acceptor
1 8 acceptor
6 10 12 14 20 22 24 rings
6 11 15 19 25 29 33 rings
6 12 16 20 26 30 34 rings
6 13 17 21 27 31 35 rings
6 14 18 22 28 32 36 rings
6 9 10 11 12 15 16 rings
6 9 10 13 14 17 18 rings
6 9 11 13 19 21 23 rings

>  <PUBCHEM_SHAPE_FINGERPRINT>
10675989 125 18194398016588665341
10967382 1 18410573980861784590
1100329 8 18338797788838864377
11513181 2 18202562856523954462
12788726 201 17902227051119725024
13140716 1 18411980234758873768
1361 2 17834393415430342929
138480 1 17617941335497513320
14117953 113 17978504230875699972
14295345 954 17473281881373637993
14790565 3 18410860961981475845
15320467 1 18194682806863435847
19591789 44 18410575088958364515
19930381 70 18337670939776099219
20028762 73 18056188077985354245
20764821 26 18337674122272798285
20775438 99 17406502308368123415
23559900 14 18339635629615806240
350125 39 18267024955406711448
3882209 13 17978467014948150279
463206 1 17761496193550011432

>  <PUBCHEM_SHAPE_MULTIPOLES>
735.07
8
7.97
0.74
0.18
0.01
0
-0.01
-0.01
0.69
0.01
-0.58
0
0.95

>  <PUBCHEM_SHAPE_SELFOVERLAP>
1773.472

>  <PUBCHEM_SHAPE_VOLUME>
357.3

>  <RI>
-9.9617e+08

>  <Rbt.Current_Directory>
/root/miniconda3/envs/rdock/share/rxdock-2013.1.1_148c5bd1-0/data/ligands/prepped_ligands/Hypericin

>  <Rbt.Executable>
rbdock/0.1.0

>  <Rbt.Library>
librxdock.so/0.1.0

>  <Rbt.Parameter_File>
/root/miniconda3/envs/rdock/share/rxdock-2013.1.1_148c5bd1-0/data/scripts/dock.prm

>  <Rbt.Receptor>
def.prm

>  <SCORE>
-11.8298

>  <SCORE.INTER>
-12.2141

>  <SCORE.INTER.CONST>
1

>  <SCORE.INTER.POLAR>
-1.9905

>  <SCORE.INTER.REPUL>
0.519091

>  <SCORE.INTER.ROT>
0

>  <SCORE.INTER.VDW>
-13.4418

>  <SCORE.INTER.norm>
-0.321424

>  <SCORE.INTRA>
-1.44978

>  <SCORE.INTRA.DIHEDRAL>
5.60923

>  <SCORE.INTRA.DIHEDRAL.0>
4.15609

>  <SCORE.INTRA.POLAR>
-0.819769

>  <SCORE.INTRA.POLAR.0>
-1.21242

>  <SCORE.INTRA.REPUL>
0

>  <SCORE.INTRA.REPUL.0>
0

>  <SCORE.INTRA.VDW>
-1.46718

>  <SCORE.INTRA.VDW.0>
2.93348

>  <SCORE.INTRA.norm>
-0.0381521

>  <SCORE.RESTR>
2.031

>  <SCORE.RESTR.CAVITY>
2.031

>  <SCORE.RESTR.norm>
0.0534474

>  <SCORE.SYSTEM>
-0.196909

>  <SCORE.SYSTEM.CONST>
0

>  <SCORE.SYSTEM.DIHEDRAL>
1.27694

>  <SCORE.SYSTEM.POLAR>
-0.00599323

>  <SCORE.SYSTEM.VDW>
-0.815

>  <SCORE.SYSTEM.norm>
-0.00518181

>  <SCORE.heavy>
38

>  <SCORE.norm>
-0.31131

$$$$
3663
  RxDock  02242109503D
librxdock.so/0.1.0
 44 51  0  0  0  0  0  0  0  0999 V2000
  -45.1871   -0.1470   20.4917 O   0  0  0  0  0  0
  -52.9879   -3.4198   15.6207 O   0  0  0  0  0  0
  -46.1592    0.0295   14.3099 O   0  0  0  0  0  0
  -48.0987   -0.2741   13.2980 O   0  0  0  0  0  0
  -44.1305    0.6337   18.3479 O   0  0  0  0  0  0
  -52.0645   -2.5174   13.4630 O   0  0  0  0  0  0
  -46.1878   -1.1767   22.5371 O   0  0  0  0  0  0
  -53.9506   -4.0546   17.8374 O   0  0  0  0  0  0
  -48.5153   -1.5291   18.3786 C   0  0  0  0  0  0
  -49.6325   -2.0146   17.6744 C   0  0  0  0  0  0
  -48.4742   -1.6499   19.7903 C   0  0  0  0  0  0
  -50.6457   -2.7179   18.3731 C   0  0  0  0  0  0
  -47.4551   -0.8970   17.6743 C   0  0  0  0  0  0
  -49.7211   -1.8225   16.2690 C   0  0  0  0  0  0
  -49.5508   -2.2446   20.4985 C   0  0  0  0  0  0
  -50.5386   -2.9453   19.7698 C   0  0  0  0  0  0
  -47.5220   -0.7189   16.2674 C   0  0  0  0  0  0
  -48.6785   -1.1729   15.5574 C   0  0  0  0  0  0
  -47.3313   -1.1807   20.4598 C   0  0  0  0  0  0
  -51.7615   -3.1638   17.6448 C   0  0  0  0  0  0
  -46.3214   -0.4371   18.3956 C   0  0  0  0  0  0
  -50.8681   -2.2932   15.5763 C   0  0  0  0  0  0
  -46.2651   -0.5948   19.7791 C   0  0  0  0  0  0
  -51.8824   -2.9478   16.2727 C   0  0  0  0  0  0
  -49.6054   -1.9701   21.9675 C   0  0  0  0  0  0
  -51.4206   -4.0133   20.3337 C   0  0  0  0  0  0
  -46.4194   -0.0858   15.6412 C   0  0  0  0  0  0
  -48.8488   -1.0149   14.1593 C   0  0  0  0  0  0
  -47.2371   -1.3265   21.9261 C   0  0  0  0  0  0
  -52.8547   -3.8649   18.3471 C   0  0  0  0  0  0
  -45.2589    0.1782   17.7284 C   0  0  0  0  0  0
  -50.9878   -2.1084   14.1966 C   0  0  0  0  0  0
  -48.5021   -1.5931   22.6334 C   0  0  0  0  0  0
  -52.5311   -4.3959   19.6831 C   0  0  0  0  0  0
  -45.3069    0.3525   16.3558 C   0  0  0  0  0  0
  -49.9823   -1.4706   13.4903 C   0  0  0  0  0  0
  -50.9139   -1.9131   22.7071 C   0  0  0  0  0  0
  -51.0034   -4.8259   21.5287 C   0  0  0  0  0  0
  -44.5241    0.2388   19.8987 H   0  0  0  0  0  0
  -53.5208   -3.9782   16.2070 H   0  0  0  0  0  0
  -45.2403   -0.2512   14.1637 H   0  0  0  0  0  0
  -47.1837   -0.5939   13.2298 H   0  0  0  0  0  0
  -43.6155    1.1888   17.7379 H   0  0  0  0  0  0
  -52.7269   -2.9319   14.0413 H   0  0  0  0  0  0
  1 23  1  0  0  0
  1 39  1  0  0  0
  2 24  1  0  0  0
  2 40  1  0  0  0
  3 27  1  0  0  0
  3 41  1  0  0  0
  4 28  1  0  0  0
  4 42  1  0  0  0
  5 31  1  0  0  0
  5 43  1  0  0  0
  6 32  1  0  0  0
  6 44  1  0  0  0
  7 29  2  0  0  0
  8 30  2  0  0  0
  9 10  1  0  0  0
  9 11  2  0  0  0
  9 13  1  0  0  0
 10 12  2  0  0  0
 10 14  1  0  0  0
 11 15  1  0  0  0
 11 19  1  0  0  0
 12 16  1  0  0  0
 12 20  1  0  0  0
 13 17  2  0  0  0
 13 21  1  0  0  0
 14 18  2  0  0  0
 14 22  1  0  0  0
 15 16  2  0  0  0
 15 25  1  0  0  0
 16 26  1  0  0  0
 17 18  1  0  0  0
 17 27  1  0  0  0
 18 28  1  0  0  0
 19 23  2  0  0  0
 19 29  1  0  0  0
 20 24  2  0  0  0
 20 30  1  0  0  0
 21 23  1  0  0  0
 21 31  2  0  0  0
 22 24  1  0  0  0
 22 32  2  0  0  0
 25 33  2  0  0  0
 25 37  1  0  0  0
 26 34  2  0  0  0
 26 38  1  0  0  0
 27 35  2  0  0  0
 28 36  2  0  0  0
 29 33  1  0  0  0
 30 34  1  0  0  0
 31 35  1  0  0  0
 32 36  1  0  0  0
M  END
>  <CHROM.0>
-61.27051595,64.78881087,-31.44762852

>  <CHROM.1>
-179.77724427,-7.97122073,-130.41067441,63.96556773,-167.92950799,1.10345593
-49.05090916,-1.75623394,17.98372049,0.39774955,0.47986006,1.71575305

>  <Name>
3663

>  <PUBCHEM_ATOM_DEF_STEREO_COUNT>
0

>  <PUBCHEM_ATOM_UDEF_STEREO_COUNT>
0

>  <PUBCHEM_BOND_DEF_STEREO_COUNT>
0

>  <PUBCHEM_BOND_UDEF_STEREO_COUNT>
0

>  <PUBCHEM_CACTVS_TAUTO_COUNT>
991

>  <PUBCHEM_COMPONENT_COUNT>
1

>  <PUBCHEM_COMPOUND_CID>
3663

>  <PUBCHEM_CONFORMER_DIVERSEORDER>
2
1

>  <PUBCHEM_CONFORMER_ID>
00000E4F00000002

>  <PUBCHEM_CONFORMER_RMSD>
0.6

>  <PUBCHEM_COORDINATE_TYPE>
2
5
10

>  <PUBCHEM_EFFECTIVE_ROTOR_COUNT>
0

>  <PUBCHEM_FEATURE_SELFOVERLAP>
81.639

>  <PUBCHEM_HEAVY_ATOM_COUNT>
38

>  <PUBCHEM_ISOTOPIC_ATOM_COUNT>
0

>  <PUBCHEM_MMFF94_ENERGY>
199.63

>  <PUBCHEM_MMFF94_PARTIAL_CHARGES>
38
1 -0.53
15 0.03
16 0.03
19 0.09
2 -0.53
20 0.09
23 0.08
24 0.08
25 -0.17
26 -0.17
27 0.08
28 0.08
29 0.47
3 -0.53
30 0.47
31 0.08
32 0.08
33 -0.14
34 -0.14
35 -0.15
36 -0.15
37 0.14
38 0.14
39 0.15
4 -0.53
40 0.15
41 0.15
42 0.15
49 0.45
5 -0.53
50 0.45
51 0.45
52 0.45
53 0.45
54 0.45
6 -0.53
7 -0.57
8 -0.57

>  <PUBCHEM_PHARMACOPHORE_FEATURES>
16
1 1 donor
1 2 donor
1 3 donor
1 4 donor
1 5 donor
1 6 donor
1 7 acceptor
1 8 acceptor
6 10 12 14 20 22 24 rings
6 11 15 19 25 29 33 rings
6 12 16 20 26 30 34 rings
6 13 17 21 27 31 35 rings
6 14 18 22 28 32 36 rings
6 9 10 11 12 15 16 rings
6 9 10 13 14 17 18 rings
6 9 11 13 19 21 23 rings

>  <PUBCHEM_SHAPE_FINGERPRINT>
10675989 125 18194398016588665341
10967382 1 18410573980861784590
1100329 8 18338797788838864377
11513181 2 18202562856523954462
12788726 201 17902227051119725024
13140716 1 18411980234758873768
1361 2 17834393415430342929
138480 1 17617941335497513320
14117953 113 17978504230875699972
14295345 954 17473281881373637993
14790565 3 18410860961981475845
15320467 1 18194682806863435847
19591789 44 18410575088958364515
19930381 70 18337670939776099219
20028762 73 18056188077985354245
20764821 26 18337674122272798285
20775438 99 17406502308368123415
23559900 14 18339635629615806240
350125 39 18267024955406711448
3882209 13 17978467014948150279
463206 1 17761496193550011432

>  <PUBCHEM_SHAPE_MULTIPOLES>
735.07
8
7.97
0.74
0.18
0.01
0
-0.01
-0.01
0.69
0.01
-0.58
0
0.95

>  <PUBCHEM_SHAPE_SELFOVERLAP>
1773.472

>  <PUBCHEM_SHAPE_VOLUME>
357.3

>  <RI>
-9.9617e+08

>  <Rbt.Current_Directory>
/root/miniconda3/envs/rdock/share/rxdock-2013.1.1_148c5bd1-0/data/ligands/prepped_ligands/Hypericin

>  <Rbt.Executable>
rbdock/0.1.0

>  <Rbt.Library>
librxdock.so/0.1.0

>  <Rbt.Parameter_File>
/root/miniconda3/envs/rdock/share/rxdock-2013.1.1_148c5bd1-0/data/scripts/dock.prm

>  <Rbt.Receptor>
def.prm

>  <SCORE>
-13.8735

>  <SCORE.INTER>
-15.39

>  <SCORE.INTER.CONST>
1

>  <SCORE.INTER.POLAR>
-1.37787

>  <SCORE.INTER.REPUL>
0

>  <SCORE.INTER.ROT>
0

>  <SCORE.INTER.VDW>
-16.1052

>  <SCORE.INTER.norm>
-0.404999

>  <SCORE.INTRA>
-1.69611

>  <SCORE.INTRA.DIHEDRAL>
2.13588

>  <SCORE.INTRA.DIHEDRAL.0>
4.15609

>  <SCORE.INTRA.POLAR>
-0.830837

>  <SCORE.INTRA.POLAR.0>
-1.21242

>  <SCORE.INTRA.REPUL>
0

>  <SCORE.INTRA.REPUL.0>
0

>  <SCORE.INTRA.VDW>
0.0607945

>  <SCORE.INTRA.VDW.0>
2.93348

>  <SCORE.INTRA.norm>
-0.0446346

>  <SCORE.RESTR>
3.06565

>  <SCORE.RESTR.CAVITY>
3.06565

>  <SCORE.RESTR.norm>
0.0806751

>  <SCORE.SYSTEM>
0.146897

>  <SCORE.SYSTEM.CONST>
0

>  <SCORE.SYSTEM.DIHEDRAL>
1.76576

>  <SCORE.SYSTEM.POLAR>
-0.0133972

>  <SCORE.SYSTEM.VDW>
-0.690431

>  <SCORE.SYSTEM.norm>
0.0038657

>  <SCORE.heavy>
38

>  <SCORE.norm>
-0.365093

$$$$
3663
  RxDock  02242109503D
librxdock.so/0.1.0
 44 51  0  0  0  0  0  0  0  0999 V2000
  -52.8955   -2.3308   17.1554 O   0  0  0  0  0  0
  -43.3524   -1.0515   18.7621 O   0  0  0  0  0  0
  -48.2210   -3.0329   13.0509 O   0  0  0  0  0  0
  -46.0766   -3.2021   13.5517 O   0  0  0  0  0  0
  -52.4439   -2.9799   14.7686 O   0  0  0  0  0  0
  -42.8172   -1.8483   16.4380 O   0  0  0  0  0  0
  -53.2763   -1.4322   19.4559 O   0  0  0  0  0  0
  -43.9489   -0.5211   21.1299 O   0  0  0  0  0  0
  -48.8042   -1.8007   17.8129 C   0  0  0  0  0  0
  -47.4300   -1.6015   18.0396 C   0  0  0  0  0  0
  -49.7225   -1.6004   18.8740 C   0  0  0  0  0  0
  -46.9957   -1.0943   19.2900 C   0  0  0  0  0  0
  -49.2556   -2.2288   16.5351 C   0  0  0  0  0  0
  -46.4947   -1.8812   17.0067 C   0  0  0  0  0  0
  -49.2688   -1.2121   20.1615 C   0  0  0  0  0  0
  -47.9321   -0.7767   20.3080 C   0  0  0  0  0  0
  -48.3327   -2.4903   15.4886 C   0  0  0  0  0  0
  -46.9318   -2.3304   15.7330 C   0  0  0  0  0  0
  -51.0901   -1.7800   18.6059 C   0  0  0  0  0  0
  -45.6146   -0.9346   19.4936 C   0  0  0  0  0  0
  -50.6481   -2.3987   16.3134 C   0  0  0  0  0  0
  -45.1087   -1.7021   17.2598 C   0  0  0  0  0  0
  -51.5522   -2.1605   17.3469 C   0  0  0  0  0  0
  -44.6817   -1.2428   18.5044 C   0  0  0  0  0  0
  -50.2306   -1.4148   21.2885 C   0  0  0  0  0  0
  -47.4363    0.1073   21.4078 C   0  0  0  0  0  0
  -48.8660   -2.9061   14.2431 C   0  0  0  0  0  0
  -45.9342   -2.5939   14.7613 C   0  0  0  0  0  0
  -52.0779   -1.5412   19.6770 C   0  0  0  0  0  0
  -45.1241   -0.4464   20.7979 C   0  0  0  0  0  0
  -51.1219   -2.8078   15.0642 C   0  0  0  0  0  0
  -44.1656   -1.9800   16.2672 C   0  0  0  0  0  0
  -51.5487   -1.5131   21.0521 C   0  0  0  0  0  0
  -46.1218    0.2103   21.6609 C   0  0  0  0  0  0
  -50.2343   -3.0598   14.0320 C   0  0  0  0  0  0
  -44.5765   -2.4253   15.0224 C   0  0  0  0  0  0
  -49.7535   -1.7101   22.6840 C   0  0  0  0  0  0
  -48.3570    1.0513   22.1312 C   0  0  0  0  0  0
  -53.1447   -3.2567   17.2997 H   0  0  0  0  0  0
  -43.1087   -1.4376   19.6172 H   0  0  0  0  0  0
  -47.5915   -2.2962   12.9765 H   0  0  0  0  0  0
  -46.7479   -3.9044   13.5637 H   0  0  0  0  0  0
  -52.5532   -3.1603   13.8195 H   0  0  0  0  0  0
  -42.6194   -1.5757   17.3500 H   0  0  0  0  0  0
  1 23  1  0  0  0
  1 39  1  0  0  0
  2 24  1  0  0  0
  2 40  1  0  0  0
  3 27  1  0  0  0
  3 41  1  0  0  0
  4 28  1  0  0  0
  4 42  1  0  0  0
  5 31  1  0  0  0
  5 43  1  0  0  0
  6 32  1  0  0  0
  6 44  1  0  0  0
  7 29  2  0  0  0
  8 30  2  0  0  0
  9 10  1  0  0  0
  9 11  2  0  0  0
  9 13  1  0  0  0
 10 12  2  0  0  0
 10 14  1  0  0  0
 11 15  1  0  0  0
 11 19  1  0  0  0
 12 16  1  0  0  0
 12 20  1  0  0  0
 13 17  2  0  0  0
 13 21  1  0  0  0
 14 18  2  0  0  0
 14 22  1  0  0  0
 15 16  2  0  0  0
 15 25  1  0  0  0
 16 26  1  0  0  0
 17 18  1  0  0  0
 17 27  1  0  0  0
 18 28  1  0  0  0
 19 23  2  0  0  0
 19 29  1  0  0  0
 20 24  2  0  0  0
 20 30  1  0  0  0
 21 23  1  0  0  0
 21 31  2  0  0  0
 22 24  1  0  0  0
 22 32  2  0  0  0
 25 33  2  0  0  0
 25 37  1  0  0  0
 26 34  2  0  0  0
 26 38  1  0  0  0
 27 35  2  0  0  0
 28 36  2  0  0  0
 29 33  1  0  0  0
 30 34  1  0  0  0
 31 35  1  0  0  0
 32 36  1  0  0  0
M  END
>  <CHROM.0>
-45.75794033,-69.40181444,-60.96091488

>  <CHROM.1>
-92.86906836,48.44569173,-38.42345607,-34.46953982,173.10023006,2.48991405
-48.10728921,-1.71804327,17.88179857,2.90919529,-0.08616292,-1.88489914

>  <Name>
3663

>  <PUBCHEM_ATOM_DEF_STEREO_COUNT>
0

>  <PUBCHEM_ATOM_UDEF_STEREO_COUNT>
0

>  <PUBCHEM_BOND_DEF_STEREO_COUNT>
0

>  <PUBCHEM_BOND_UDEF_STEREO_COUNT>
0

>  <PUBCHEM_CACTVS_TAUTO_COUNT>
991

>  <PUBCHEM_COMPONENT_COUNT>
1

>  <PUBCHEM_COMPOUND_CID>
3663

>  <PUBCHEM_CONFORMER_DIVERSEORDER>
2
1

>  <PUBCHEM_CONFORMER_ID>
00000E4F00000002

>  <PUBCHEM_CONFORMER_RMSD>
0.6

>  <PUBCHEM_COORDINATE_TYPE>
2
5
10

>  <PUBCHEM_EFFECTIVE_ROTOR_COUNT>
0

>  <PUBCHEM_FEATURE_SELFOVERLAP>
81.639

>  <PUBCHEM_HEAVY_ATOM_COUNT>
38

>  <PUBCHEM_ISOTOPIC_ATOM_COUNT>
0

>  <PUBCHEM_MMFF94_ENERGY>
199.63

>  <PUBCHEM_MMFF94_PARTIAL_CHARGES>
38
1 -0.53
15 0.03
16 0.03
19 0.09
2 -0.53
20 0.09
23 0.08
24 0.08
25 -0.17
26 -0.17
27 0.08
28 0.08
29 0.47
3 -0.53
30 0.47
31 0.08
32 0.08
33 -0.14
34 -0.14
35 -0.15
36 -0.15
37 0.14
38 0.14
39 0.15
4 -0.53
40 0.15
41 0.15
42 0.15
49 0.45
5 -0.53
50 0.45
51 0.45
52 0.45
53 0.45
54 0.45
6 -0.53
7 -0.57
8 -0.57

>  <PUBCHEM_PHARMACOPHORE_FEATURES>
16
1 1 donor
1 2 donor
1 3 donor
1 4 donor
1 5 donor
1 6 donor
1 7 acceptor
1 8 acceptor
6 10 12 14 20 22 24 rings
6 11 15 19 25 29 33 rings
6 12 16 20 26 30 34 rings
6 13 17 21 27 31 35 rings
6 14 18 22 28 32 36 rings
6 9 10 11 12 15 16 rings
6 9 10 13 14 17 18 rings
6 9 11 13 19 21 23 rings

>  <PUBCHEM_SHAPE_FINGERPRINT>
10675989 125 18194398016588665341
10967382 1 18410573980861784590
1100329 8 18338797788838864377
11513181 2 18202562856523954462
12788726 201 17902227051119725024
13140716 1 18411980234758873768
1361 2 17834393415430342929
138480 1 17617941335497513320
14117953 113 17978504230875699972
14295345 954 17473281881373637993
14790565 3 18410860961981475845
15320467 1 18194682806863435847
19591789 44 18410575088958364515
19930381 70 18337670939776099219
20028762 73 18056188077985354245
20764821 26 18337674122272798285
20775438 99 17406502308368123415
23559900 14 18339635629615806240
350125 39 18267024955406711448
3882209 13 17978467014948150279
463206 1 17761496193550011432

>  <PUBCHEM_SHAPE_MULTIPOLES>
735.07
8
7.97
0.74
0.18
0.01
0
-0.01
-0.01
0.69
0.01
-0.58
0
0.95

>  <PUBCHEM_SHAPE_SELFOVERLAP>
1773.472

>  <PUBCHEM_SHAPE_VOLUME>
357.3

>  <RI>
-9.9617e+08

>  <Rbt.Current_Directory>
/root/miniconda3/envs/rdock/share/rxdock-2013.1.1_148c5bd1-0/data/ligands/prepped_ligands/Hypericin

>  <Rbt.Executable>
rbdock/0.1.0

>  <Rbt.Library>
librxdock.so/0.1.0

>  <Rbt.Parameter_File>
/root/miniconda3/envs/rdock/share/rxdock-2013.1.1_148c5bd1-0/data/scripts/dock.prm

>  <Rbt.Receptor>
def.prm

>  <SCORE>
-9.31455

>  <SCORE.INTER>
-14.0306

>  <SCORE.INTER.CONST>
1

>  <SCORE.INTER.POLAR>
-1.48431

>  <SCORE.INTER.REPUL>
0.204573

>  <SCORE.INTER.ROT>
0

>  <SCORE.INTER.VDW>
-15.4068

>  <SCORE.INTER.norm>
-0.369225

>  <SCORE.INTRA>
2.54316

>  <SCORE.INTRA.DIHEDRAL>
7.43986

>  <SCORE.INTRA.DIHEDRAL.0>
4.15609

>  <SCORE.INTRA.POLAR>
0.352814

>  <SCORE.INTRA.POLAR.0>
-1.21242

>  <SCORE.INTRA.REPUL>
0

>  <SCORE.INTRA.REPUL.0>
0

>  <SCORE.INTRA.VDW>
-2.37634

>  <SCORE.INTRA.VDW.0>
2.93348

>  <SCORE.INTRA.norm>
0.0669252

>  <SCORE.RESTR>
2.80119

>  <SCORE.RESTR.CAVITY>
2.80119

>  <SCORE.RESTR.norm>
0.0737155

>  <SCORE.SYSTEM>
-0.628333

>  <SCORE.SYSTEM.CONST>
0

>  <SCORE.SYSTEM.DIHEDRAL>
0.898841

>  <SCORE.SYSTEM.VDW>
-1.07775

>  <SCORE.SYSTEM.norm>
-0.0165351

>  <SCORE.heavy>
38

>  <SCORE.norm>
-0.24512

$$$$
3663
  RxDock  02242109503D
librxdock.so/0.1.0
 44 51  0  0  0  0  0  0  0  0999 V2000
  -43.3661   -1.1524   18.5546 O   0  0  0  0  0  0
  -52.9196   -2.6609   17.2338 O   0  0  0  0  0  0
  -46.2022   -3.2771   13.3939 O   0  0  0  0  0  0
  -48.3657   -3.1570   12.9664 O   0  0  0  0  0  0
  -42.8871   -1.8871   16.1982 O   0  0  0  0  0  0
  -52.5300   -3.2490   14.8203 O   0  0  0  0  0  0
  -43.8984   -0.6830   20.9507 O   0  0  0  0  0  0
  -53.2482   -1.8164   19.5624 O   0  0  0  0  0  0
  -47.4493   -1.7997   17.9543 C   0  0  0  0  0  0
  -48.8245   -2.0320   17.7684 C   0  0  0  0  0  0
  -46.9877   -1.3044   19.1996 C   0  0  0  0  0  0
  -49.7123   -1.8767   18.8624 C   0  0  0  0  0  0
  -46.5415   -2.0339   16.8862 C   0  0  0  0  0  0
  -49.3062   -2.4477   16.4975 C   0  0  0  0  0  0
  -47.8983   -1.0317   20.2536 C   0  0  0  0  0  0
  -49.2270   -1.5006   20.1418 C   0  0  0  0  0  0
  -47.0082   -2.4705   15.6186 C   0  0  0  0  0  0
  -48.4117   -2.6639   15.4167 C   0  0  0  0  0  0
  -45.6054   -1.1107   19.3613 C   0  0  0  0  0  0
  -51.0827   -2.0883   18.6353 C   0  0  0  0  0  0
  -45.1532   -1.8215   17.0977 C   0  0  0  0  0  0
  -50.7003   -2.6510   16.3176 C   0  0  0  0  0  0
  -44.6978   -1.3744   18.3365 C   0  0  0  0  0  0
  -51.5758   -2.4571   17.3845 C   0  0  0  0  0  0
  -47.3903   -0.1551   21.3535 C   0  0  0  0  0  0
  -50.1455   -1.7501   21.2953 C   0  0  0  0  0  0
  -46.0366   -2.6878   14.6099 C   0  0  0  0  0  0
  -48.9745   -3.0701   14.1810 C   0  0  0  0  0  0
  -45.0854   -0.6338   20.6584 C   0  0  0  0  0  0
  -52.0408   -1.8965   19.7423 C   0  0  0  0  0  0
  -44.2362   -2.0542   16.0695 C   0  0  0  0  0  0
  -51.2038   -3.0487   15.0765 C   0  0  0  0  0  0
  -46.0713   -0.0206   21.5658 C   0  0  0  0  0  0
  -51.4676   -1.8796   21.0997 C   0  0  0  0  0  0
  -44.6759   -2.4869   14.8300 C   0  0  0  0  0  0
  -50.3443   -3.2567   14.0113 C   0  0  0  0  0  0
  -48.3116    0.7497   22.1249 C   0  0  0  0  0  0
  -49.6151   -2.0585   22.6686 C   0  0  0  0  0  0
  -43.1009   -1.4998   19.4202 H   0  0  0  0  0  0
  -53.4218   -2.1272   17.8683 H   0  0  0  0  0  0
  -46.8492   -2.7495   12.8963 H   0  0  0  0  0  0
  -48.9017   -2.7747   12.2519 H   0  0  0  0  0  0
  -42.6436   -1.8477   17.1386 H   0  0  0  0  0  0
  -53.0489   -3.1465   15.6360 H   0  0  0  0  0  0
  1 23  1  0  0  0
  1 39  1  0  0  0
  2 24  1  0  0  0
  2 40  1  0  0  0
  3 27  1  0  0  0
  3 41  1  0  0  0
  4 28  1  0  0  0
  4 42  1  0  0  0
  5 31  1  0  0  0
  5 43  1  0  0  0
  6 32  1  0  0  0
  6 44  1  0  0  0
  7 29  2  0  0  0
  8 30  2  0  0  0
  9 10  1  0  0  0
  9 11  2  0  0  0
  9 13  1  0  0  0
 10 12  2  0  0  0
 10 14  1  0  0  0
 11 15  1  0  0  0
 11 19  1  0  0  0
 12 16  1  0  0  0
 12 20  1  0  0  0
 13 17  2  0  0  0
 13 21  1  0  0  0
 14 18  2  0  0  0
 14 22  1  0  0  0
 15 16  2  0  0  0
 15 25  1  0  0  0
 16 26  1  0  0  0
 17 18  1  0  0  0
 17 27  1  0  0  0
 18 28  1  0  0  0
 19 23  2  0  0  0
 19 29  1  0  0  0
 20 24  2  0  0  0
 20 30  1  0  0  0
 21 23  1  0  0  0
 21 31  2  0  0  0
 22 24  1  0  0  0
 22 32  2  0  0  0
 25 33  2  0  0  0
 25 37  1  0  0  0
 26 34  2  0  0  0
 26 38  1  0  0  0
 27 35  2  0  0  0
 28 36  2  0  0  0
 29 33  1  0  0  0
 30 34  1  0  0  0
 31 35  1  0  0  0
 32 36  1  0  0  0
M  END
>  <CHROM.0>
80.20810009,-175.23548032,65.70832380

>  <CHROM.1>
44.80119127,27.90485032,61.00837572,-134.64616151,16.67100666,-4.61605465
-48.13176299,-1.92604696,17.81836250,0.18846783,0.12026977,1.28021387

>  <Name>
3663

>  <PUBCHEM_ATOM_DEF_STEREO_COUNT>
0

>  <PUBCHEM_ATOM_UDEF_STEREO_COUNT>
0

>  <PUBCHEM_BOND_DEF_STEREO_COUNT>
0

>  <PUBCHEM_BOND_UDEF_STEREO_COUNT>
0

>  <PUBCHEM_CACTVS_TAUTO_COUNT>
991

>  <PUBCHEM_COMPONENT_COUNT>
1

>  <PUBCHEM_COMPOUND_CID>
3663

>  <PUBCHEM_CONFORMER_DIVERSEORDER>
2
1

>  <PUBCHEM_CONFORMER_ID>
00000E4F00000002

>  <PUBCHEM_CONFORMER_RMSD>
0.6

>  <PUBCHEM_COORDINATE_TYPE>
2
5
10

>  <PUBCHEM_EFFECTIVE_ROTOR_COUNT>
0

>  <PUBCHEM_FEATURE_SELFOVERLAP>
81.639

>  <PUBCHEM_HEAVY_ATOM_COUNT>
38

>  <PUBCHEM_ISOTOPIC_ATOM_COUNT>
0

>  <PUBCHEM_MMFF94_ENERGY>
199.63

>  <PUBCHEM_MMFF94_PARTIAL_CHARGES>
38
1 -0.53
15 0.03
16 0.03
19 0.09
2 -0.53
20 0.09
23 0.08
24 0.08
25 -0.17
26 -0.17
27 0.08
28 0.08
29 0.47
3 -0.53
30 0.47
31 0.08
32 0.08
33 -0.14
34 -0.14
35 -0.15
36 -0.15
37 0.14
38 0.14
39 0.15
4 -0.53
40 0.15
41 0.15
42 0.15
49 0.45
5 -0.53
50 0.45
51 0.45
52 0.45
53 0.45
54 0.45
6 -0.53
7 -0.57
8 -0.57

>  <PUBCHEM_PHARMACOPHORE_FEATURES>
16
1 1 donor
1 2 donor
1 3 donor
1 4 donor
1 5 donor
1 6 donor
1 7 acceptor
1 8 acceptor
6 10 12 14 20 22 24 rings
6 11 15 19 25 29 33 rings
6 12 16 20 26 30 34 rings
6 13 17 21 27 31 35 rings
6 14 18 22 28 32 36 rings
6 9 10 11 12 15 16 rings
6 9 10 13 14 17 18 rings
6 9 11 13 19 21 23 rings

>  <PUBCHEM_SHAPE_FINGERPRINT>
10675989 125 18194398016588665341
10967382 1 18410573980861784590
1100329 8 18338797788838864377
11513181 2 18202562856523954462
12788726 201 17902227051119725024
13140716 1 18411980234758873768
1361 2 17834393415430342929
138480 1 17617941335497513320
14117953 113 17978504230875699972
14295345 954 17473281881373637993
14790565 3 18410860961981475845
15320467 1 18194682806863435847
19591789 44 18410575088958364515
19930381 70 18337670939776099219
20028762 73 18056188077985354245
20764821 26 18337674122272798285
20775438 99 17406502308368123415
23559900 14 18339635629615806240
350125 39 18267024955406711448
3882209 13 17978467014948150279
463206 1 17761496193550011432

>  <PUBCHEM_SHAPE_MULTIPOLES>
735.07
8
7.97
0.74
0.18
0.01
0
-0.01
-0.01
0.69
0.01
-0.58
0
0.95

>  <PUBCHEM_SHAPE_SELFOVERLAP>
1773.472

>  <PUBCHEM_SHAPE_VOLUME>
357.3

>  <RI>
-9.9617e+08

>  <Rbt.Current_Directory>
/root/miniconda3/envs/rdock/share/rxdock-2013.1.1_148c5bd1-0/data/ligands/prepped_ligands/Hypericin

>  <Rbt.Executable>
rbdock/0.1.0

>  <Rbt.Library>
librxdock.so/0.1.0

>  <Rbt.Parameter_File>
/root/miniconda3/envs/rdock/share/rxdock-2013.1.1_148c5bd1-0/data/scripts/dock.prm

>  <Rbt.Receptor>
def.prm

>  <SCORE>
-9.08993

>  <SCORE.INTER>
-9.60363

>  <SCORE.INTER.CONST>
1

>  <SCORE.INTER.POLAR>
-1.01554

>  <SCORE.INTER.REPUL>
0.5653

>  <SCORE.INTER.ROT>
0

>  <SCORE.INTER.VDW>
-14.3773

>  <SCORE.INTER.norm>
-0.252727

>  <SCORE.INTRA>
-1.46536

>  <SCORE.INTRA.DIHEDRAL>
4.95816

>  <SCORE.INTRA.DIHEDRAL.0>
4.15609

>  <SCORE.INTRA.POLAR>
-0.610669

>  <SCORE.INTRA.POLAR.0>
-1.21242

>  <SCORE.INTRA.REPUL>
0

>  <SCORE.INTRA.REPUL.0>
0

>  <SCORE.INTRA.VDW>
-1.86817

>  <SCORE.INTRA.VDW.0>
2.93348

>  <SCORE.INTRA.norm>
-0.0385622

>  <SCORE.RESTR>
2.30472

>  <SCORE.RESTR.CAVITY>
2.30472

>  <SCORE.RESTR.norm>
0.0606504

>  <SCORE.SYSTEM>
-0.325651

>  <SCORE.SYSTEM.CONST>
0

>  <SCORE.SYSTEM.DIHEDRAL>
1.09155

>  <SCORE.SYSTEM.POLAR>
-0.0120465

>  <SCORE.SYSTEM.VDW>
-0.830466

>  <SCORE.SYSTEM.norm>
-0.00856976

>  <SCORE.heavy>
38

>  <SCORE.norm>
-0.239209

$$$$
3663
  RxDock  02242109503D
librxdock.so/0.1.0
 44 51  0  0  0  0  0  0  0  0999 V2000
  -44.6560   -4.6073   18.0144 O   0  0  0  0  0  0
  -53.7530   -3.6319   14.6111 O   0  0  0  0  0  0
  -46.7660   -0.3108   13.9797 O   0  0  0  0  0  0
  -48.8871    0.1760   13.6029 O   0  0  0  0  0  0
  -43.9062   -2.6075   16.6875 O   0  0  0  0  0  0
  -53.1096   -1.5305   13.3894 O   0  0  0  0  0  0
  -45.4211   -6.7264   19.0957 O   0  0  0  0  0  0
  -54.3694   -5.5740   16.0574 O   0  0  0  0  0  0
  -48.5412   -4.1572   16.5465 C   0  0  0  0  0  0
  -49.8487   -4.0255   16.0437 C   0  0  0  0  0  0
  -48.2491   -5.1949   17.4669 C   0  0  0  0  0  0
  -50.8247   -4.9986   16.3750 C   0  0  0  0  0  0
  -47.5354   -3.2338   16.1525 C   0  0  0  0  0  0
  -50.1710   -2.9383   15.1869 C   0  0  0  0  0  0
  -49.2625   -6.0929   17.8923 C   0  0  0  0  0  0
  -50.4935   -6.1064   17.1978 C   0  0  0  0  0  0
  -47.8399   -2.1564   15.2796 C   0  0  0  0  0  0
  -49.1800   -1.9969   14.8037 C   0  0  0  0  0  0
  -46.9271   -5.3158   17.9272 C   0  0  0  0  0  0
  -52.1278   -4.8215   15.8798 C   0  0  0  0  0  0
  -46.2138   -3.3962   16.6466 C   0  0  0  0  0  0
  -51.5019   -2.8029   14.7100 C   0  0  0  0  0  0
  -45.9200   -4.4427   17.5187 C   0  0  0  0  0  0
  -52.4697   -3.7384   15.0712 C   0  0  0  0  0  0
  -48.9723   -6.8746   19.1336 C   0  0  0  0  0  0
  -51.4427   -7.2616   17.1623 C   0  0  0  0  0  0
  -46.7779   -1.2855   14.9300 C   0  0  0  0  0  0
  -49.5861   -0.9384   13.9531 C   0  0  0  0  0  0
  -46.5782   -6.4096   18.8557 C   0  0  0  0  0  0
  -53.1794   -5.7941   16.2376 C   0  0  0  0  0  0
  -45.2019   -2.5103   16.2676 C   0  0  0  0  0  0
  -51.8505   -1.7379   13.8756 C   0  0  0  0  0  0
  -47.7072   -7.0607   19.5434 C   0  0  0  0  0  0
  -52.7127   -7.0897   16.7618 C   0  0  0  0  0  0
  -45.4823   -1.4590   15.4114 C   0  0  0  0  0  0
  -50.8964   -0.8081   13.4990 C   0  0  0  0  0  0
  -50.0722   -7.3068   20.0641 C   0  0  0  0  0  0
  -50.9698   -8.6728   17.3791 C   0  0  0  0  0  0
  -44.1124   -5.1193   17.3960 H   0  0  0  0  0  0
  -54.3720   -4.0726   15.2130 H   0  0  0  0  0  0
  -46.1010    0.3479   14.2412 H   0  0  0  0  0  0
  -48.4282    0.0769   12.7523 H   0  0  0  0  0  0
  -43.6475   -3.5419   16.7596 H   0  0  0  0  0  0
  -53.6514   -2.3287   13.5091 H   0  0  0  0  0  0
  1 23  1  0  0  0
  1 39  1  0  0  0
  2 24  1  0  0  0
  2 40  1  0  0  0
  3 27  1  0  0  0
  3 41  1  0  0  0
  4 28  1  0  0  0
  4 42  1  0  0  0
  5 31  1  0  0  0
  5 43  1  0  0  0
  6 32  1  0  0  0
  6 44  1  0  0  0
  7 29  2  0  0  0
  8 30  2  0  0  0
  9 10  1  0  0  0
  9 11  2  0  0  0
  9 13  1  0  0  0
 10 12  2  0  0  0
 10 14  1  0  0  0
 11 15  1  0  0  0
 11 19  1  0  0  0
 12 16  1  0  0  0
 12 20  1  0  0  0
 13 17  2  0  0  0
 13 21  1  0  0  0
 14 18  2  0  0  0
 14 22  1  0  0  0
 15 16  2  0  0  0
 15 25  1  0  0  0
 16 26  1  0  0  0
 17 18  1  0  0  0
 17 27  1  0  0  0
 18 28  1  0  0  0
 19 23  2  0  0  0
 19 29  1  0  0  0
 20 24  2  0  0  0
 20 30  1  0  0  0
 21 23  1  0  0  0
 21 31  2  0  0  0
 22 24  1  0  0  0
 22 32  2  0  0  0
 25 33  2  0  0  0
 25 37  1  0  0  0
 26 34  2  0  0  0
 26 38  1  0  0  0
 27 35  2  0  0  0
 28 36  2  0  0  0
 29 33  1  0  0  0
 30 34  1  0  0  0
 31 35  1  0  0  0
 32 36  1  0  0  0
M  END
>  <CHROM.0>
72.93511188,70.30916956,178.43676819

>  <CHROM.1>
96.36956338,26.84552542,154.41473232,96.03113658,36.17363739,-14.63057803
-49.17980732,-4.05503190,16.26948129,0.26538004,0.24412095,2.51192148

>  <Name>
3663

>  <PUBCHEM_ATOM_DEF_STEREO_COUNT>
0

>  <PUBCHEM_ATOM_UDEF_STEREO_COUNT>
0

>  <PUBCHEM_BOND_DEF_STEREO_COUNT>
0

>  <PUBCHEM_BOND_UDEF_STEREO_COUNT>
0

>  <PUBCHEM_CACTVS_TAUTO_COUNT>
991

>  <PUBCHEM_COMPONENT_COUNT>
1

>  <PUBCHEM_COMPOUND_CID>
3663

>  <PUBCHEM_CONFORMER_DIVERSEORDER>
2
1

>  <PUBCHEM_CONFORMER_ID>
00000E4F00000002

>  <PUBCHEM_CONFORMER_RMSD>
0.6

>  <PUBCHEM_COORDINATE_TYPE>
2
5
10

>  <PUBCHEM_EFFECTIVE_ROTOR_COUNT>
0

>  <PUBCHEM_FEATURE_SELFOVERLAP>
81.639

>  <PUBCHEM_HEAVY_ATOM_COUNT>
38

>  <PUBCHEM_ISOTOPIC_ATOM_COUNT>
0

>  <PUBCHEM_MMFF94_ENERGY>
199.63

>  <PUBCHEM_MMFF94_PARTIAL_CHARGES>
38
1 -0.53
15 0.03
16 0.03
19 0.09
2 -0.53
20 0.09
23 0.08
24 0.08
25 -0.17
26 -0.17
27 0.08
28 0.08
29 0.47
3 -0.53
30 0.47
31 0.08
32 0.08
33 -0.14
34 -0.14
35 -0.15
36 -0.15
37 0.14
38 0.14
39 0.15
4 -0.53
40 0.15
41 0.15
42 0.15
49 0.45
5 -0.53
50 0.45
51 0.45
52 0.45
53 0.45
54 0.45
6 -0.53
7 -0.57
8 -0.57

>  <PUBCHEM_PHARMACOPHORE_FEATURES>
16
1 1 donor
1 2 donor
1 3 donor
1 4 donor
1 5 donor
1 6 donor
1 7 acceptor
1 8 acceptor
6 10 12 14 20 22 24 rings
6 11 15 19 25 29 33 rings
6 12 16 20 26 30 34 rings
6 13 17 21 27 31 35 rings
6 14 18 22 28 32 36 rings
6 9 10 11 12 15 16 rings
6 9 10 13 14 17 18 rings
6 9 11 13 19 21 23 rings

>  <PUBCHEM_SHAPE_FINGERPRINT>
10675989 125 18194398016588665341
10967382 1 18410573980861784590
1100329 8 18338797788838864377
11513181 2 18202562856523954462
12788726 201 17902227051119725024
13140716 1 18411980234758873768
1361 2 17834393415430342929
138480 1 17617941335497513320
14117953 113 17978504230875699972
14295345 954 17473281881373637993
14790565 3 18410860961981475845
15320467 1 18194682806863435847
19591789 44 18410575088958364515
19930381 70 18337670939776099219
20028762 73 18056188077985354245
20764821 26 18337674122272798285
20775438 99 17406502308368123415
23559900 14 18339635629615806240
350125 39 18267024955406711448
3882209 13 17978467014948150279
463206 1 17761496193550011432

>  <PUBCHEM_SHAPE_MULTIPOLES>
735.07
8
7.97
0.74
0.18
0.01
0
-0.01
-0.01
0.69
0.01
-0.58
0
0.95

>  <PUBCHEM_SHAPE_SELFOVERLAP>
1773.472

>  <PUBCHEM_SHAPE_VOLUME>
357.3

>  <RI>
-9.9617e+08

>  <Rbt.Current_Directory>
/root/miniconda3/envs/rdock/share/rxdock-2013.1.1_148c5bd1-0/data/ligands/prepped_ligands/Hypericin

>  <Rbt.Executable>
rbdock/0.1.0

>  <Rbt.Library>
librxdock.so/0.1.0

>  <Rbt.Parameter_File>
/root/miniconda3/envs/rdock/share/rxdock-2013.1.1_148c5bd1-0/data/scripts/dock.prm

>  <Rbt.Receptor>
def.prm

>  <SCORE>
56.5748

>  <SCORE.INTER>
48.3332

>  <SCORE.INTER.CONST>
1

>  <SCORE.INTER.POLAR>
-1.29289

>  <SCORE.INTER.REPUL>
0.140772

>  <SCORE.INTER.ROT>
0

>  <SCORE.INTER.VDW>
46.6252

>  <SCORE.INTER.norm>
1.27193

>  <SCORE.INTRA>
5.62842

>  <SCORE.INTRA.DIHEDRAL>
9.48723

>  <SCORE.INTRA.DIHEDRAL.0>
4.15609

>  <SCORE.INTRA.POLAR>
0.432817

>  <SCORE.INTRA.POLAR.0>
-1.21242

>  <SCORE.INTRA.REPUL>
0

>  <SCORE.INTRA.REPUL.0>
0

>  <SCORE.INTRA.VDW>
-0.586777

>  <SCORE.INTRA.VDW.0>
2.93348

>  <SCORE.INTRA.norm>
0.148116

>  <SCORE.RESTR>
3.23962

>  <SCORE.RESTR.CAVITY>
3.23962

>  <SCORE.RESTR.norm>
0.0852533

>  <SCORE.SYSTEM>
-0.626431

>  <SCORE.SYSTEM.CONST>
0

>  <SCORE.SYSTEM.DIHEDRAL>
0.907785

>  <SCORE.SYSTEM.VDW>
-1.08032

>  <SCORE.SYSTEM.norm>
-0.016485

>  <SCORE.heavy>
38

>  <SCORE.norm>
1.48881

$$$$
3663
  RxDock  02242109503D
librxdock.so/0.1.0
 44 51  0  0  0  0  0  0  0  0999 V2000
  -45.7863   -6.2366   18.9322 O   0  0  0  0  0  0
  -53.8243   -3.1803   14.3128 O   0  0  0  0  0  0
  -46.2684   -1.4948   14.8734 O   0  0  0  0  0  0
  -48.1494   -0.5380   14.2221 O   0  0  0  0  0  0
  -44.4251   -4.4284   17.8368 O   0  0  0  0  0  0
  -52.5595   -1.2515   13.3116 O   0  0  0  0  0  0
  -47.1507   -8.1525   19.7763 O   0  0  0  0  0  0
  -55.0624   -4.9646   15.5486 O   0  0  0  0  0  0
  -49.2097   -4.8983   16.9470 C   0  0  0  0  0  0
  -50.3648   -4.4671   16.2690 C   0  0  0  0  0  0
  -49.2947   -5.9938   17.8425 C   0  0  0  0  0  0
  -51.5684   -5.2036   16.4035 C   0  0  0  0  0  0
  -47.9787   -4.2156   16.7521 C   0  0  0  0  0  0
  -50.3077   -3.3180   15.4347 C   0  0  0  0  0  0
  -50.5323   -6.6508   18.0686 C   0  0  0  0  0  0
  -51.6161   -6.3742   17.2045 C   0  0  0  0  0  0
  -47.9042   -3.0796   15.9038 C   0  0  0  0  0  0
  -49.0888   -2.6145   15.2493 C   0  0  0  0  0  0
  -48.1168   -6.4170   18.4811 C   0  0  0  0  0  0
  -52.7104   -4.7293   15.7363 C   0  0  0  0  0  0
  -46.8154   -4.6797   17.4217 C   0  0  0  0  0  0
  -51.4885   -2.8784   14.7792 C   0  0  0  0  0  0
  -46.8932   -5.7831   18.2694 C   0  0  0  0  0  0
  -52.6806   -3.5808   14.9464 C   0  0  0  0  0  0
  -50.6121   -7.5030   19.2948 C   0  0  0  0  0  0
  -52.7776   -7.2867   16.9706 C   0  0  0  0  0  0
  -46.6372   -2.4614   15.7582 C   0  0  0  0  0  0
  -49.1198   -1.4747   14.4075 C   0  0  0  0  0  0
  -48.1605   -7.5799   19.3898 C   0  0  0  0  0  0
  -53.9908   -5.4490   15.8860 C   0  0  0  0  0  0
  -45.5889   -4.0352   17.2406 C   0  0  0  0  0  0
  -51.4651   -1.7454   13.9619 C   0  0  0  0  0  0
  -49.4956   -7.9758   19.8718 C   0  0  0  0  0  0
  -53.9034   -6.8267   16.4014 C   0  0  0  0  0  0
  -45.4995   -2.9304   16.4110 C   0  0  0  0  0  0
  -50.2852   -1.0451   13.7772 C   0  0  0  0  0  0
  -51.9083   -7.6971   20.0327 C   0  0  0  0  0  0
  -52.6627   -8.7721   17.1768 C   0  0  0  0  0  0
  -44.9790   -5.8877   18.5240 H   0  0  0  0  0  0
  -54.3987   -3.9389   14.1277 H   0  0  0  0  0  0
  -46.3449   -1.8687   13.9795 H   0  0  0  0  0  0
  -47.6519   -0.3500   15.0352 H   0  0  0  0  0  0
  -43.6800   -4.3145   17.2226 H   0  0  0  0  0  0
  -53.3079   -1.8658   13.3994 H   0  0  0  0  0  0
  1 23  1  0  0  0
  1 39  1  0  0  0
  2 24  1  0  0  0
  2 40  1  0  0  0
  3 27  1  0  0  0
  3 41  1  0  0  0
  4 28  1  0  0  0
  4 42  1  0  0  0
  5 31  1  0  0  0
  5 43  1  0  0  0
  6 32  1  0  0  0
  6 44  1  0  0  0
  7 29  2  0  0  0
  8 30  2  0  0  0
  9 10  1  0  0  0
  9 11  2  0  0  0
  9 13  1  0  0  0
 10 12  2  0  0  0
 10 14  1  0  0  0
 11 15  1  0  0  0
 11 19  1  0  0  0
 12 16  1  0  0  0
 12 20  1  0  0  0
 13 17  2  0  0  0
 13 21  1  0  0  0
 14 18  2  0  0  0
 14 22  1  0  0  0
 15 16  2  0  0  0
 15 25  1  0  0  0
 16 26  1  0  0  0
 17 18  1  0  0  0
 17 27  1  0  0  0
 18 28  1  0  0  0
 19 23  2  0  0  0
 19 29  1  0  0  0
 20 24  2  0  0  0
 20 30  1  0  0  0
 21 23  1  0  0  0
 21 31  2  0  0  0
 22 24  1  0  0  0
 22 32  2  0  0  0
 25 33  2  0  0  0
 25 37  1  0  0  0
 26 34  2  0  0  0
 26 38  1  0  0  0
 27 35  2  0  0  0
 28 36  2  0  0  0
 29 33  1  0  0  0
 30 34  1  0  0  0
 31 35  1  0  0  0
 32 36  1  0  0  0
M  END
>  <CHROM.0>
-45.41721803,-61.99565947,-63.19864843

>  <CHROM.1>
164.28348589,-27.98251052,-63.73480604,-35.53080634,142.33652598,-7.93767268
-49.76015961,-4.64789866,16.58524099,0.51941875,0.23079490,2.48395359

>  <Name>
3663

>  <PUBCHEM_ATOM_DEF_STEREO_COUNT>
0

>  <PUBCHEM_ATOM_UDEF_STEREO_COUNT>
0

>  <PUBCHEM_BOND_DEF_STEREO_COUNT>
0

>  <PUBCHEM_BOND_UDEF_STEREO_COUNT>
0

>  <PUBCHEM_CACTVS_TAUTO_COUNT>
991

>  <PUBCHEM_COMPONENT_COUNT>
1

>  <PUBCHEM_COMPOUND_CID>
3663

>  <PUBCHEM_CONFORMER_DIVERSEORDER>
2
1

>  <PUBCHEM_CONFORMER_ID>
00000E4F00000002

>  <PUBCHEM_CONFORMER_RMSD>
0.6

>  <PUBCHEM_COORDINATE_TYPE>
2
5
10

>  <PUBCHEM_EFFECTIVE_ROTOR_COUNT>
0

>  <PUBCHEM_FEATURE_SELFOVERLAP>
81.639

>  <PUBCHEM_HEAVY_ATOM_COUNT>
38

>  <PUBCHEM_ISOTOPIC_ATOM_COUNT>
0

>  <PUBCHEM_MMFF94_ENERGY>
199.63

>  <PUBCHEM_MMFF94_PARTIAL_CHARGES>
38
1 -0.53
15 0.03
16 0.03
19 0.09
2 -0.53
20 0.09
23 0.08
24 0.08
25 -0.17
26 -0.17
27 0.08
28 0.08
29 0.47
3 -0.53
30 0.47
31 0.08
32 0.08
33 -0.14
34 -0.14
35 -0.15
36 -0.15
37 0.14
38 0.14
39 0.15
4 -0.53
40 0.15
41 0.15
42 0.15
49 0.45
5 -0.53
50 0.45
51 0.45
52 0.45
53 0.45
54 0.45
6 -0.53
7 -0.57
8 -0.57

>  <PUBCHEM_PHARMACOPHORE_FEATURES>
16
1 1 donor
1 2 donor
1 3 donor
1 4 donor
1 5 donor
1 6 donor
1 7 acceptor
1 8 acceptor
6 10 12 14 20 22 24 rings
6 11 15 19 25 29 33 rings
6 12 16 20 26 30 34 rings
6 13 17 21 27 31 35 rings
6 14 18 22 28 32 36 rings
6 9 10 11 12 15 16 rings
6 9 10 13 14 17 18 rings
6 9 11 13 19 21 23 rings

>  <PUBCHEM_SHAPE_FINGERPRINT>
10675989 125 18194398016588665341
10967382 1 18410573980861784590
1100329 8 18338797788838864377
11513181 2 18202562856523954462
12788726 201 17902227051119725024
13140716 1 18411980234758873768
1361 2 17834393415430342929
138480 1 17617941335497513320
14117953 113 17978504230875699972
14295345 954 17473281881373637993
14790565 3 18410860961981475845
15320467 1 18194682806863435847
19591789 44 18410575088958364515
19930381 70 18337670939776099219
20028762 73 18056188077985354245
20764821 26 18337674122272798285
20775438 99 17406502308368123415
23559900 14 18339635629615806240
350125 39 18267024955406711448
3882209 13 17978467014948150279
463206 1 17761496193550011432

>  <PUBCHEM_SHAPE_MULTIPOLES>
735.07
8
7.97
0.74
0.18
0.01
0
-0.01
-0.01
0.69
0.01
-0.58
0
0.95

>  <PUBCHEM_SHAPE_SELFOVERLAP>
1773.472

>  <PUBCHEM_SHAPE_VOLUME>
357.3

>  <RI>
-9.9617e+08

>  <Rbt.Current_Directory>
/root/miniconda3/envs/rdock/share/rxdock-2013.1.1_148c5bd1-0/data/ligands/prepped_ligands/Hypericin

>  <Rbt.Executable>
rbdock/0.1.0

>  <Rbt.Library>
librxdock.so/0.1.0

>  <Rbt.Parameter_File>
/root/miniconda3/envs/rdock/share/rxdock-2013.1.1_148c5bd1-0/data/scripts/dock.prm

>  <Rbt.Receptor>
def.prm

>  <SCORE>
62.6088

>  <SCORE.INTER>
61.5078

>  <SCORE.INTER.CONST>
1

>  <SCORE.INTER.POLAR>
-2.5398

>  <SCORE.INTER.REPUL>
0.121604

>  <SCORE.INTER.ROT>
0

>  <SCORE.INTER.VDW>
64.1351

>  <SCORE.INTER.norm>
1.61863

>  <SCORE.INTRA>
-0.97282

>  <SCORE.INTRA.DIHEDRAL>
5.33496

>  <SCORE.INTRA.DIHEDRAL.0>
4.15609

>  <SCORE.INTRA.POLAR>
-0.399082

>  <SCORE.INTRA.POLAR.0>
-1.21242

>  <SCORE.INTRA.REPUL>
0

>  <SCORE.INTRA.REPUL.0>
0

>  <SCORE.INTRA.VDW>
-2.28342

>  <SCORE.INTRA.VDW.0>
2.93348

>  <SCORE.INTRA.norm>
-0.0256005

>  <SCORE.RESTR>
2.82044

>  <SCORE.RESTR.CAVITY>
2.82044

>  <SCORE.RESTR.norm>
0.0742221

>  <SCORE.SYSTEM>
-0.746645

>  <SCORE.SYSTEM.CONST>
0

>  <SCORE.SYSTEM.DIHEDRAL>
0.53754

>  <SCORE.SYSTEM.VDW>
-1.01541

>  <SCORE.SYSTEM.norm>
-0.0196485

>  <SCORE.heavy>
38

>  <SCORE.norm>
1.6476

$$$$
3663
  RxDock  02242109503D
librxdock.so/0.1.0
 44 51  0  0  0  0  0  0  0  0999 V2000
  -53.2697   -4.2391   16.9245 O   0  0  0  0  0  0
  -44.4930   -0.4698   18.9373 O   0  0  0  0  0  0
  -48.4331   -3.5622   13.0078 O   0  0  0  0  0  0
  -46.3425   -3.1580   13.5944 O   0  0  0  0  0  0
  -52.5727   -4.6886   14.5508 O   0  0  0  0  0  0
  -43.6780   -1.0404   16.6281 O   0  0  0  0  0  0
  -53.9628   -3.5282   19.2178 O   0  0  0  0  0  0
  -45.2966   -0.1731   21.2846 O   0  0  0  0  0  0
  -49.5009   -2.6401   17.7559 C   0  0  0  0  0  0
  -48.2409   -2.0827   18.0413 C   0  0  0  0  0  0
  -50.4771   -2.7186   18.7806 C   0  0  0  0  0  0
  -48.0058   -1.5054   19.3144 C   0  0  0  0  0  0
  -49.7729   -3.1453   16.4557 C   0  0  0  0  0  0
  -47.2278   -2.0767   17.0446 C   0  0  0  0  0  0
  -50.1925   -2.2513   20.0902 C   0  0  0  0  0  0
  -49.0296   -1.4749   20.2966 C   0  0  0  0  0  0
  -48.7761   -3.1246   15.4451 C   0  0  0  0  0  0
  -47.4805   -2.5984   15.7488 C   0  0  0  0  0  0
  -51.7345   -3.2544   18.4544 C   0  0  0  0  0  0
  -46.7276   -0.9837   19.5765 C   0  0  0  0  0  0
  -51.0585   -3.6794   16.1749 C   0  0  0  0  0  0
  -45.9521   -1.5361   17.3566 C   0  0  0  0  0  0
  -52.0304   -3.7171   17.1730 C   0  0  0  0  0  0
  -45.7108   -1.0066   18.6230 C   0  0  0  0  0  0
  -51.1042   -2.7311   21.1741 C   0  0  0  0  0  0
  -48.8318   -0.5149   21.4262 C   0  0  0  0  0  0
  -49.1313   -3.6409   14.1738 C   0  0  0  0  0  0
  -46.4141   -2.5613   14.8159 C   0  0  0  0  0  0
  -52.7885   -3.3149   19.4867 C   0  0  0  0  0  0
  -46.4353   -0.4107   20.9054 C   0  0  0  0  0  0
  -51.3582   -4.1730   14.9025 C   0  0  0  0  0  0
  -44.9334   -1.5270   16.4003 C   0  0  0  0  0  0
  -52.3371   -3.1760   20.8826 C   0  0  0  0  0  0
  -47.6041   -0.0669   21.7343 C   0  0  0  0  0  0
  -50.3985   -4.1531   13.9048 C   0  0  0  0  0  0
  -45.1629   -2.0386   15.1346 C   0  0  0  0  0  0
  -50.6162   -2.9180   22.5846 C   0  0  0  0  0  0
  -49.9991    0.1293   22.1221 C   0  0  0  0  0  0
  -53.9475   -3.7583   17.4241 H   0  0  0  0  0  0
  -44.3119   -0.5594   19.8854 H   0  0  0  0  0  0
  -49.0563   -3.3052   12.3078 H   0  0  0  0  0  0
  -46.9642   -3.8993   13.5041 H   0  0  0  0  0  0
  -53.1908   -4.6275   15.2988 H   0  0  0  0  0  0
  -43.0304   -1.5107   16.0762 H   0  0  0  0  0  0
  1 23  1  0  0  0
  1 39  1  0  0  0
  2 24  1  0  0  0
  2 40  1  0  0  0
  3 27  1  0  0  0
  3 41  1  0  0  0
  4 28  1  0  0  0
  4 42  1  0  0  0
  5 31  1  0  0  0
  5 43  1  0  0  0
  6 32  1  0  0  0
  6 44  1  0  0  0
  7 29  2  0  0  0
  8 30  2  0  0  0
  9 10  1  0  0  0
  9 11  2  0  0  0
  9 13  1  0  0  0
 10 12  2  0  0  0
 10 14  1  0  0  0
 11 15  1  0  0  0
 11 19  1  0  0  0
 12 16  1  0  0  0
 12 20  1  0  0  0
 13 17  2  0  0  0
 13 21  1  0  0  0
 14 18  2  0  0  0
 14 22  1  0  0  0
 15 16  2  0  0  0
 15 25  1  0  0  0
 16 26  1  0  0  0
 17 18  1  0  0  0
 17 27  1  0  0  0
 18 28  1  0  0  0
 19 23  2  0  0  0
 19 29  1  0  0  0
 20 24  2  0  0  0
 20 30  1  0  0  0
 21 23  1  0  0  0
 21 31  2  0  0  0
 22 24  1  0  0  0
 22 32  2  0  0  0
 25 33  2  0  0  0
 25 37  1  0  0  0
 26 34  2  0  0  0
 26 38  1  0  0  0
 27 35  2  0  0  0
 28 36  2  0  0  0
 29 33  1  0  0  0
 30 34  1  0  0  0
 31 35  1  0  0  0
 32 36  1  0  0  0
M  END
>  <CHROM.0>
70.71766476,-63.07765368,64.51872471

>  <CHROM.1>
36.22854120,30.57113837,-134.28867247,-20.85318028,2.10867168,150.59254568
-48.85932844,-2.37277154,17.85433060,2.81922583,-0.33181966,-1.89362881

>  <Name>
3663

>  <PUBCHEM_ATOM_DEF_STEREO_COUNT>
0

>  <PUBCHEM_ATOM_UDEF_STEREO_COUNT>
0

>  <PUBCHEM_BOND_DEF_STEREO_COUNT>
0

>  <PUBCHEM_BOND_UDEF_STEREO_COUNT>
0

>  <PUBCHEM_CACTVS_TAUTO_COUNT>
991

>  <PUBCHEM_COMPONENT_COUNT>
1

>  <PUBCHEM_COMPOUND_CID>
3663

>  <PUBCHEM_CONFORMER_DIVERSEORDER>
2
1

>  <PUBCHEM_CONFORMER_ID>
00000E4F00000002

>  <PUBCHEM_CONFORMER_RMSD>
0.6

>  <PUBCHEM_COORDINATE_TYPE>
2
5
10

>  <PUBCHEM_EFFECTIVE_ROTOR_COUNT>
0

>  <PUBCHEM_FEATURE_SELFOVERLAP>
81.639

>  <PUBCHEM_HEAVY_ATOM_COUNT>
38

>  <PUBCHEM_ISOTOPIC_ATOM_COUNT>
0

>  <PUBCHEM_MMFF94_ENERGY>
199.63

>  <PUBCHEM_MMFF94_PARTIAL_CHARGES>
38
1 -0.53
15 0.03
16 0.03
19 0.09
2 -0.53
20 0.09
23 0.08
24 0.08
25 -0.17
26 -0.17
27 0.08
28 0.08
29 0.47
3 -0.53
30 0.47
31 0.08
32 0.08
33 -0.14
34 -0.14
35 -0.15
36 -0.15
37 0.14
38 0.14
39 0.15
4 -0.53
40 0.15
41 0.15
42 0.15
49 0.45
5 -0.53
50 0.45
51 0.45
52 0.45
53 0.45
54 0.45
6 -0.53
7 -0.57
8 -0.57

>  <PUBCHEM_PHARMACOPHORE_FEATURES>
16
1 1 donor
1 2 donor
1 3 donor
1 4 donor
1 5 donor
1 6 donor
1 7 acceptor
1 8 acceptor
6 10 12 14 20 22 24 rings
6 11 15 19 25 29 33 rings
6 12 16 20 26 30 34 rings
6 13 17 21 27 31 35 rings
6 14 18 22 28 32 36 rings
6 9 10 11 12 15 16 rings
6 9 10 13 14 17 18 rings
6 9 11 13 19 21 23 rings

>  <PUBCHEM_SHAPE_FINGERPRINT>
10675989 125 18194398016588665341
10967382 1 18410573980861784590
1100329 8 18338797788838864377
11513181 2 18202562856523954462
12788726 201 17902227051119725024
13140716 1 18411980234758873768
1361 2 17834393415430342929
138480 1 17617941335497513320
14117953 113 17978504230875699972
14295345 954 17473281881373637993
14790565 3 18410860961981475845
15320467 1 18194682806863435847
19591789 44 18410575088958364515
19930381 70 18337670939776099219
20028762 73 18056188077985354245
20764821 26 18337674122272798285
20775438 99 17406502308368123415
23559900 14 18339635629615806240
350125 39 18267024955406711448
3882209 13 17978467014948150279
463206 1 17761496193550011432

>  <PUBCHEM_SHAPE_MULTIPOLES>
735.07
8
7.97
0.74
0.18
0.01
0
-0.01
-0.01
0.69
0.01
-0.58
0
0.95

>  <PUBCHEM_SHAPE_SELFOVERLAP>
1773.472

>  <PUBCHEM_SHAPE_VOLUME>
357.3

>  <RI>
-9.9617e+08

>  <Rbt.Current_Directory>
/root/miniconda3/envs/rdock/share/rxdock-2013.1.1_148c5bd1-0/data/ligands/prepped_ligands/Hypericin

>  <Rbt.Executable>
rbdock/0.1.0

>  <Rbt.Library>
librxdock.so/0.1.0

>  <Rbt.Parameter_File>
/root/miniconda3/envs/rdock/share/rxdock-2013.1.1_148c5bd1-0/data/scripts/dock.prm

>  <Rbt.Receptor>
def.prm

>  <SCORE>
-11.1536

>  <SCORE.INTER>
-14.4717

>  <SCORE.INTER.CONST>
1

>  <SCORE.INTER.POLAR>
-1.84609

>  <SCORE.INTER.REPUL>
0.0154439

>  <SCORE.INTER.ROT>
0

>  <SCORE.INTER.VDW>
-13.6722

>  <SCORE.INTER.norm>
-0.380833

>  <SCORE.INTRA>
1.31758

>  <SCORE.INTRA.DIHEDRAL>
2.7607

>  <SCORE.INTRA.DIHEDRAL.0>
4.15609

>  <SCORE.INTRA.POLAR>
0.0808465

>  <SCORE.INTRA.POLAR.0>
-1.21242

>  <SCORE.INTRA.REPUL>
0.011955

>  <SCORE.INTRA.REPUL.0>
0

>  <SCORE.INTRA.VDW>
-0.39742

>  <SCORE.INTRA.VDW.0>
2.93348

>  <SCORE.INTRA.norm>
0.0346732

>  <SCORE.RESTR>
2.82296

>  <SCORE.RESTR.CAVITY>
2.82296

>  <SCORE.RESTR.norm>
0.0742883

>  <SCORE.SYSTEM>
-0.822519

>  <SCORE.SYSTEM.CONST>
0

>  <SCORE.SYSTEM.DIHEDRAL>
0.361874

>  <SCORE.SYSTEM.POLAR>
-0.0102225

>  <SCORE.SYSTEM.VDW>
-0.9687

>  <SCORE.SYSTEM.norm>
-0.0216452

>  <SCORE.heavy>
38

>  <SCORE.norm>
-0.293517

$$$$
3663
  RxDock  02242109503D
librxdock.so/0.1.0
 44 51  0  0  0  0  0  0  0  0999 V2000
  -49.9145   -0.9007   22.3047 O   0  0  0  0  0  0
  -46.6426   -3.1962   13.3988 O   0  0  0  0  0  0
  -53.2053   -3.2847   17.5425 O   0  0  0  0  0  0
  -52.3606   -4.2248   15.7313 O   0  0  0  0  0  0
  -52.2259   -1.6814   21.6966 O   0  0  0  0  0  0
  -48.8873   -4.1446   12.7789 O   0  0  0  0  0  0
  -47.6605    0.0858   22.7424 O   0  0  0  0  0  0
  -44.3816   -2.4730   14.1789 O   0  0  0  0  0  0
  -48.5437   -1.9021   18.4876 C   0  0  0  0  0  0
  -48.0762   -2.2187   17.1989 C   0  0  0  0  0  0
  -47.6428   -1.3745   19.4464 C   0  0  0  0  0  0
  -46.7416   -1.8998   16.8432 C   0  0  0  0  0  0
  -49.9032   -2.1412   18.8255 C   0  0  0  0  0  0
  -48.9514   -2.8263   16.2583 C   0  0  0  0  0  0
  -46.2757   -1.1731   19.1225 C   0  0  0  0  0  0
  -45.8789   -1.2566   17.7684 C   0  0  0  0  0  0
  -50.7928   -2.7273   17.8871 C   0  0  0  0  0  0
  -50.3058   -3.0903   16.5914 C   0  0  0  0  0  0
  -48.1486   -1.0423   20.7145 C   0  0  0  0  0  0
  -46.2981   -2.2558   15.5583 C   0  0  0  0  0  0
  -50.3672   -1.7906   20.1212 C   0  0  0  0  0  0
  -48.4572   -3.1657   14.9708 C   0  0  0  0  0  0
  -49.4886   -1.2331   21.0484 C   0  0  0  0  0  0
  -47.1324   -2.8887   14.6380 C   0  0  0  0  0  0
  -45.3421   -1.0043   20.2784 C   0  0  0  0  0  0
  -44.6590   -0.6103   17.1935 C   0  0  0  0  0  0
  -52.1337   -2.9250   18.3013 C   0  0  0  0  0  0
  -51.1093   -3.7053   15.5989 C   0  0  0  0  0  0
  -47.2472   -0.4533   21.7248 C   0  0  0  0  0  0
  -44.9022   -1.9749   15.1677 C   0  0  0  0  0  0
  -51.7012   -2.0038   20.4779 C   0  0  0  0  0  0
  -49.2914   -3.7743   14.0296 C   0  0  0  0  0  0
  -45.8034   -0.6144   21.4776 C   0  0  0  0  0  0
  -44.1815   -0.9944   15.9988 C   0  0  0  0  0  0
  -52.5821   -2.5681   19.5710 C   0  0  0  0  0  0
  -50.6127   -4.0442   14.3425 C   0  0  0  0  0  0
  -43.9069   -1.4472   20.1993 C   0  0  0  0  0  0
  -44.0449    0.6087   17.8253 C   0  0  0  0  0  0
  -50.8791   -0.9764   22.3678 H   0  0  0  0  0  0
  -45.8633   -2.6575   13.1936 H   0  0  0  0  0  0
  -53.0121   -3.0361   16.6231 H   0  0  0  0  0  0
  -52.6083   -4.7964   14.9856 H   0  0  0  0  0  0
  -52.8419   -2.3744   21.9890 H   0  0  0  0  0  0
  -49.5037   -4.7976   12.4065 H   0  0  0  0  0  0
  1 23  1  0  0  0
  1 39  1  0  0  0
  2 24  1  0  0  0
  2 40  1  0  0  0
  3 27  1  0  0  0
  3 41  1  0  0  0
  4 28  1  0  0  0
  4 42  1  0  0  0
  5 31  1  0  0  0
  5 43  1  0  0  0
  6 32  1  0  0  0
  6 44  1  0  0  0
  7 29  2  0  0  0
  8 30  2  0  0  0
  9 10  1  0  0  0
  9 11  2  0  0  0
  9 13  1  0  0  0
 10 12  2  0  0  0
 10 14  1  0  0  0
 11 15  1  0  0  0
 11 19  1  0  0  0
 12 16  1  0  0  0
 12 20  1  0  0  0
 13 17  2  0  0  0
 13 21  1  0  0  0
 14 18  2  0  0  0
 14 22  1  0  0  0
 15 16  2  0  0  0
 15 25  1  0  0  0
 16 26  1  0  0  0
 17 18  1  0  0  0
 17 27  1  0  0  0
 18 28  1  0  0  0
 19 23  2  0  0  0
 19 29  1  0  0  0
 20 24  2  0  0  0
 20 30  1  0  0  0
 21 23  1  0  0  0
 21 31  2  0  0  0
 22 24  1  0  0  0
 22 32  2  0  0  0
 25 33  2  0  0  0
 25 37  1  0  0  0
 26 34  2  0  0  0
 26 38  1  0  0  0
 27 35  2  0  0  0
 28 36  2  0  0  0
 29 33  1  0  0  0
 30 34  1  0  0  0
 31 35  1  0  0  0
 32 36  1  0  0  0
M  END
>  <CHROM.0>
76.16745495,-61.71947279,66.26377892

>  <CHROM.1>
172.84832308,-20.35500943,-23.25112577,-164.64482569,-140.20621628,161.05643048
-48.35763505,-2.08010481,17.82751065,-1.92120877,-0.26301636,-1.90688613

>  <Name>
3663

>  <PUBCHEM_ATOM_DEF_STEREO_COUNT>
0

>  <PUBCHEM_ATOM_UDEF_STEREO_COUNT>
0

>  <PUBCHEM_BOND_DEF_STEREO_COUNT>
0

>  <PUBCHEM_BOND_UDEF_STEREO_COUNT>
0

>  <PUBCHEM_CACTVS_TAUTO_COUNT>
991

>  <PUBCHEM_COMPONENT_COUNT>
1

>  <PUBCHEM_COMPOUND_CID>
3663

>  <PUBCHEM_CONFORMER_DIVERSEORDER>
2
1

>  <PUBCHEM_CONFORMER_ID>
00000E4F00000002

>  <PUBCHEM_CONFORMER_RMSD>
0.6

>  <PUBCHEM_COORDINATE_TYPE>
2
5
10

>  <PUBCHEM_EFFECTIVE_ROTOR_COUNT>
0

>  <PUBCHEM_FEATURE_SELFOVERLAP>
81.639

>  <PUBCHEM_HEAVY_ATOM_COUNT>
38

>  <PUBCHEM_ISOTOPIC_ATOM_COUNT>
0

>  <PUBCHEM_MMFF94_ENERGY>
199.63

>  <PUBCHEM_MMFF94_PARTIAL_CHARGES>
38
1 -0.53
15 0.03
16 0.03
19 0.09
2 -0.53
20 0.09
23 0.08
24 0.08
25 -0.17
26 -0.17
27 0.08
28 0.08
29 0.47
3 -0.53
30 0.47
31 0.08
32 0.08
33 -0.14
34 -0.14
35 -0.15
36 -0.15
37 0.14
38 0.14
39 0.15
4 -0.53
40 0.15
41 0.15
42 0.15
49 0.45
5 -0.53
50 0.45
51 0.45
52 0.45
53 0.45
54 0.45
6 -0.53
7 -0.57
8 -0.57

>  <PUBCHEM_PHARMACOPHORE_FEATURES>
16
1 1 donor
1 2 donor
1 3 donor
1 4 donor
1 5 donor
1 6 donor
1 7 acceptor
1 8 acceptor
6 10 12 14 20 22 24 rings
6 11 15 19 25 29 33 rings
6 12 16 20 26 30 34 rings
6 13 17 21 27 31 35 rings
6 14 18 22 28 32 36 rings
6 9 10 11 12 15 16 rings
6 9 10 13 14 17 18 rings
6 9 11 13 19 21 23 rings

>  <PUBCHEM_SHAPE_FINGERPRINT>
10675989 125 18194398016588665341
10967382 1 18410573980861784590
1100329 8 18338797788838864377
11513181 2 18202562856523954462
12788726 201 17902227051119725024
13140716 1 18411980234758873768
1361 2 17834393415430342929
138480 1 17617941335497513320
14117953 113 17978504230875699972
14295345 954 17473281881373637993
14790565 3 18410860961981475845
15320467 1 18194682806863435847
19591789 44 18410575088958364515
19930381 70 18337670939776099219
20028762 73 18056188077985354245
20764821 26 18337674122272798285
20775438 99 17406502308368123415
23559900 14 18339635629615806240
350125 39 18267024955406711448
3882209 13 17978467014948150279
463206 1 17761496193550011432

>  <PUBCHEM_SHAPE_MULTIPOLES>
735.07
8
7.97
0.74
0.18
0.01
0
-0.01
-0.01
0.69
0.01
-0.58
0
0.95

>  <PUBCHEM_SHAPE_SELFOVERLAP>
1773.472

>  <PUBCHEM_SHAPE_VOLUME>
357.3

>  <RI>
-9.9617e+08

>  <Rbt.Current_Directory>
/root/miniconda3/envs/rdock/share/rxdock-2013.1.1_148c5bd1-0/data/ligands/prepped_ligands/Hypericin

>  <Rbt.Executable>
rbdock/0.1.0

>  <Rbt.Library>
librxdock.so/0.1.0

>  <Rbt.Parameter_File>
/root/miniconda3/envs/rdock/share/rxdock-2013.1.1_148c5bd1-0/data/scripts/dock.prm

>  <Rbt.Receptor>
def.prm

>  <SCORE>
-6.93726

>  <SCORE.INTER>
-10.4996

>  <SCORE.INTER.CONST>
1

>  <SCORE.INTER.POLAR>
-0.432753

>  <SCORE.INTER.REPUL>
0.000993297

>  <SCORE.INTER.ROT>
0

>  <SCORE.INTER.VDW>
-14.4333

>  <SCORE.INTER.norm>
-0.276306

>  <SCORE.INTRA>
1.42001

>  <SCORE.INTRA.DIHEDRAL>
0.30216

>  <SCORE.INTRA.DIHEDRAL.0>
4.15609

>  <SCORE.INTRA.POLAR>
0.0597303

>  <SCORE.INTRA.POLAR.0>
-1.21242

>  <SCORE.INTRA.REPUL>
0.0468642

>  <SCORE.INTRA.REPUL.0>
0

>  <SCORE.INTRA.VDW>
0.831531

>  <SCORE.INTRA.VDW.0>
2.93348

>  <SCORE.INTRA.norm>
0.0373688

>  <SCORE.RESTR>
2.71167

>  <SCORE.RESTR.CAVITY>
2.71167

>  <SCORE.RESTR.norm>
0.0713597

>  <SCORE.SYSTEM>
-0.5693

>  <SCORE.SYSTEM.CONST>
0

>  <SCORE.SYSTEM.DIHEDRAL>
0.702438

>  <SCORE.SYSTEM.POLAR>
-0.0128172

>  <SCORE.SYSTEM.VDW>
-0.87694

>  <SCORE.SYSTEM.norm>
-0.0149816

>  <SCORE.heavy>
38

>  <SCORE.norm>
-0.182559

$$$$
3663
  RxDock  02242109503D
librxdock.so/0.1.0
 44 51  0  0  0  0  0  0  0  0999 V2000
  -53.2252   -4.2623   16.7732 O   0  0  0  0  0  0
  -44.5855   -0.5240   19.3559 O   0  0  0  0  0  0
  -48.1943   -3.4486   13.1373 O   0  0  0  0  0  0
  -46.1394   -3.0548   13.8445 O   0  0  0  0  0  0
  -52.4028   -4.6366   14.4267 O   0  0  0  0  0  0
  -43.6480   -1.0210   17.0762 O   0  0  0  0  0  0
  -54.0408   -3.6242   19.0475 O   0  0  0  0  0  0
  -45.5121   -0.3021   21.6658 O   0  0  0  0  0  0
  -49.5133   -2.6756   17.8488 C   0  0  0  0  0  0
  -48.2729   -2.1226   18.2165 C   0  0  0  0  0  0
  -50.5413   -2.7890   18.8181 C   0  0  0  0  0  0
  -48.1076   -1.5835   19.5170 C   0  0  0  0  0  0
  -49.7144   -3.1419   16.5214 C   0  0  0  0  0  0
  -47.2092   -2.0824   17.2748 C   0  0  0  0  0  0
  -50.3280   -2.3608   20.1543 C   0  0  0  0  0  0
  -49.1815   -1.5868   20.4448 C   0  0  0  0  0  0
  -48.6664   -3.0868   15.5654 C   0  0  0  0  0  0
  -47.3911   -2.5653   15.9523 C   0  0  0  0  0  0
  -51.7771   -3.3191   18.4105 C   0  0  0  0  0  0
  -46.8477   -1.0654   19.8613 C   0  0  0  0  0  0
  -50.9808   -3.6719   16.1576 C   0  0  0  0  0  0
  -45.9544   -1.5470   17.6693 C   0  0  0  0  0  0
  -52.0032   -3.7436   17.1019 C   0  0  0  0  0  0
  -45.7823   -1.0555   18.9621 C   0  0  0  0  0  0
  -51.2924   -2.8768   21.1741 C   0  0  0  0  0  0
  -49.0479   -0.6610   21.6117 C   0  0  0  0  0  0
  -48.9520   -3.5653   14.2623 C   0  0  0  0  0  0
  -46.2777   -2.4959   15.0781 C   0  0  0  0  0  0
  -52.8832   -3.4149   19.3839 C   0  0  0  0  0  0
  -46.6281   -0.5321   21.2205 C   0  0  0  0  0  0
  -51.2110   -4.1276   14.8570 C   0  0  0  0  0  0
  -44.8872   -1.5050   16.7684 C   0  0  0  0  0  0
  -52.5061   -3.3170   20.8050 C   0  0  0  0  0  0
  -47.8404   -0.2180   21.9971 C   0  0  0  0  0  0
  -50.2007   -4.0737   13.9120 C   0  0  0  0  0  0
  -45.0477   -1.9786   15.4775 C   0  0  0  0  0  0
  -50.8777   -3.1048   22.6018 C   0  0  0  0  0  0
  -50.2534   -0.0425   22.2648 C   0  0  0  0  0  0
  -53.7808   -4.3502   17.5629 H   0  0  0  0  0  0
  -44.6910    0.4023   19.6211 H   0  0  0  0  0  0
  -48.0577   -4.3419   12.7799 H   0  0  0  0  0  0
  -46.3595   -4.0011   13.8366 H   0  0  0  0  0  0
  -53.0640   -4.5859   15.1378 H   0  0  0  0  0  0
  -43.0900   -0.9963   16.2805 H   0  0  0  0  0  0
  1 23  1  0  0  0
  1 39  1  0  0  0
  2 24  1  0  0  0
  2 40  1  0  0  0
  3 27  1  0  0  0
  3 41  1  0  0  0
  4 28  1  0  0  0
  4 42  1  0  0  0
  5 31  1  0  0  0
  5 43  1  0  0  0
  6 32  1  0  0  0
  6 44  1  0  0  0
  7 29  2  0  0  0
  8 30  2  0  0  0
  9 10  1  0  0  0
  9 11  2  0  0  0
  9 13  1  0  0  0
 10 12  2  0  0  0
 10 14  1  0  0  0
 11 15  1  0  0  0
 11 19  1  0  0  0
 12 16  1  0  0  0
 12 20  1  0  0  0
 13 17  2  0  0  0
 13 21  1  0  0  0
 14 18  2  0  0  0
 14 22  1  0  0  0
 15 16  2  0  0  0
 15 25  1  0  0  0
 16 26  1  0  0  0
 17 18  1  0  0  0
 17 27  1  0  0  0
 18 28  1  0  0  0
 19 23  2  0  0  0
 19 29  1  0  0  0
 20 24  2  0  0  0
 20 30  1  0  0  0
 21 23  1  0  0  0
 21 31  2  0  0  0
 22 24  1  0  0  0
 22 32  2  0  0  0
 25 33  2  0  0  0
 25 37  1  0  0  0
 26 34  2  0  0  0
 26 38  1  0  0  0
 27 35  2  0  0  0
 28 36  2  0  0  0
 29 33  1  0  0  0
 30 34  1  0  0  0
 31 35  1  0  0  0
 32 36  1  0  0  0
M  END
>  <CHROM.0>
71.09562176,-175.91326817,-168.15036914

>  <CHROM.1>
-5.74336068,-58.63472500,125.29386362,-50.80628744,3.13019272,-173.84778267
-48.87740713,-2.40986784,17.98839614,-2.78000679,0.32215228,1.25787274

>  <Name>
3663

>  <PUBCHEM_ATOM_DEF_STEREO_COUNT>
0

>  <PUBCHEM_ATOM_UDEF_STEREO_COUNT>
0

>  <PUBCHEM_BOND_DEF_STEREO_COUNT>
0

>  <PUBCHEM_BOND_UDEF_STEREO_COUNT>
0

>  <PUBCHEM_CACTVS_TAUTO_COUNT>
991

>  <PUBCHEM_COMPONENT_COUNT>
1

>  <PUBCHEM_COMPOUND_CID>
3663

>  <PUBCHEM_CONFORMER_DIVERSEORDER>
2
1

>  <PUBCHEM_CONFORMER_ID>
00000E4F00000002

>  <PUBCHEM_CONFORMER_RMSD>
0.6

>  <PUBCHEM_COORDINATE_TYPE>
2
5
10

>  <PUBCHEM_EFFECTIVE_ROTOR_COUNT>
0

>  <PUBCHEM_FEATURE_SELFOVERLAP>
81.639

>  <PUBCHEM_HEAVY_ATOM_COUNT>
38

>  <PUBCHEM_ISOTOPIC_ATOM_COUNT>
0

>  <PUBCHEM_MMFF94_ENERGY>
199.63

>  <PUBCHEM_MMFF94_PARTIAL_CHARGES>
38
1 -0.53
15 0.03
16 0.03
19 0.09
2 -0.53
20 0.09
23 0.08
24 0.08
25 -0.17
26 -0.17
27 0.08
28 0.08
29 0.47
3 -0.53
30 0.47
31 0.08
32 0.08
33 -0.14
34 -0.14
35 -0.15
36 -0.15
37 0.14
38 0.14
39 0.15
4 -0.53
40 0.15
41 0.15
42 0.15
49 0.45
5 -0.53
50 0.45
51 0.45
52 0.45
53 0.45
54 0.45
6 -0.53
7 -0.57
8 -0.57

>  <PUBCHEM_PHARMACOPHORE_FEATURES>
16
1 1 donor
1 2 donor
1 3 donor
1 4 donor
1 5 donor
1 6 donor
1 7 acceptor
1 8 acceptor
6 10 12 14 20 22 24 rings
6 11 15 19 25 29 33 rings
6 12 16 20 26 30 34 rings
6 13 17 21 27 31 35 rings
6 14 18 22 28 32 36 rings
6 9 10 11 12 15 16 rings
6 9 10 13 14 17 18 rings
6 9 11 13 19 21 23 rings

>  <PUBCHEM_SHAPE_FINGERPRINT>
10675989 125 18194398016588665341
10967382 1 18410573980861784590
1100329 8 18338797788838864377
11513181 2 18202562856523954462
12788726 201 17902227051119725024
13140716 1 18411980234758873768
1361 2 17834393415430342929
138480 1 17617941335497513320
14117953 113 17978504230875699972
14295345 954 17473281881373637993
14790565 3 18410860961981475845
15320467 1 18194682806863435847
19591789 44 18410575088958364515
19930381 70 18337670939776099219
20028762 73 18056188077985354245
20764821 26 18337674122272798285
20775438 99 17406502308368123415
23559900 14 18339635629615806240
350125 39 18267024955406711448
3882209 13 17978467014948150279
463206 1 17761496193550011432

>  <PUBCHEM_SHAPE_MULTIPOLES>
735.07
8
7.97
0.74
0.18
0.01
0
-0.01
-0.01
0.69
0.01
-0.58
0
0.95

>  <PUBCHEM_SHAPE_SELFOVERLAP>
1773.472

>  <PUBCHEM_SHAPE_VOLUME>
357.3

>  <RI>
-9.9617e+08

>  <Rbt.Current_Directory>
/root/miniconda3/envs/rdock/share/rxdock-2013.1.1_148c5bd1-0/data/ligands/prepped_ligands/Hypericin

>  <Rbt.Executable>
rbdock/0.1.0

>  <Rbt.Library>
librxdock.so/0.1.0

>  <Rbt.Parameter_File>
/root/miniconda3/envs/rdock/share/rxdock-2013.1.1_148c5bd1-0/data/scripts/dock.prm

>  <Rbt.Receptor>
def.prm

>  <SCORE>
-5.03574

>  <SCORE.INTER>
-10.67

>  <SCORE.INTER.CONST>
1

>  <SCORE.INTER.POLAR>
-1.79264

>  <SCORE.INTER.REPUL>
0.610406

>  <SCORE.INTER.ROT>
0

>  <SCORE.INTER.VDW>
-13.027

>  <SCORE.INTER.norm>
-0.280789

>  <SCORE.INTRA>
3.04872

>  <SCORE.INTRA.DIHEDRAL>
6.31088

>  <SCORE.INTRA.DIHEDRAL.0>
4.15609

>  <SCORE.INTRA.POLAR>
0.369401

>  <SCORE.INTRA.POLAR.0>
-1.21242

>  <SCORE.INTRA.REPUL>
0

>  <SCORE.INTRA.REPUL.0>
0

>  <SCORE.INTRA.VDW>
-1.36269

>  <SCORE.INTRA.VDW.0>
2.93348

>  <SCORE.INTRA.norm>
0.0802294

>  <SCORE.RESTR>
3.24273

>  <SCORE.RESTR.CAVITY>
3.24273

>  <SCORE.RESTR.norm>
0.0853349

>  <SCORE.SYSTEM>
-0.657207

>  <SCORE.SYSTEM.CONST>
0

>  <SCORE.SYSTEM.DIHEDRAL>
0.69627

>  <SCORE.SYSTEM.POLAR>
-0.0191204

>  <SCORE.SYSTEM.VDW>
-0.940333

>  <SCORE.SYSTEM.norm>
-0.0172949

>  <SCORE.heavy>
38

>  <SCORE.norm>
-0.132519

$$$$
