Rutin.pdb
  RxDock  02242112103D
librxdock.so/0.1.0
 53 57  0  0  0  0  0  0  0  0999 V2000
  -49.8914   -1.4546   20.0519 O   0  0  0  0  0  0
  -46.8427    0.6024   20.4393 O   0  0  0  0  0  0
  -44.4647    1.0253   20.3737 O   0  0  0  0  0  0
  -48.7012    1.9603   19.1560 O   0  0  0  0  0  0
  -51.5000    2.1054   18.5001 O   0  0  0  0  0  0
  -51.8132   -2.6840   19.3740 O   0  0  0  0  0  0
  -52.7984   -0.4132   17.9988 O   0  0  0  0  0  0
  -44.1058   -1.8125   20.9834 O   0  0  0  0  0  0
  -44.8441   -2.6367   18.3928 O   0  0  0  0  0  0
  -44.1050   -0.2763   16.9064 O   0  0  0  0  0  0
  -49.6336   -5.5177   18.3425 O   0  0  0  0  0  0
  -52.7005   -4.7118   20.8327 O   0  0  0  0  0  0
  -52.8509   -7.3017   21.4586 O   0  0  0  0  0  0
  -49.6033  -10.0965   19.4667 O   0  0  0  0  0  0
  -50.6700   -1.3388   14.5677 O   0  0  0  0  0  0
  -48.0668   -0.4873   14.8398 O   0  0  0  0  0  0
  -48.9434   -0.4169   19.7194 C   0  0  0  0  0  0
  -49.6355    0.9573   19.5826 C   0  0  0  0  0  0
  -50.7915    0.8591   18.5684 C   0  0  0  0  0  0
  -51.7486   -0.2781   18.9678 C   0  0  0  0  0  0
  -45.2902   -1.2789   20.3712 C   0  0  0  0  0  0
  -45.5291    0.1688   20.8439 C   0  0  0  0  0  0
  -45.1690   -1.3099   18.8348 C   0  0  0  0  0  0
  -44.1028   -0.3107   18.3413 C   0  0  0  0  0  0
  -50.9387   -1.5843   19.0688 C   0  0  0  0  0  0
  -47.8635   -0.3389   20.8108 C   0  0  0  0  0  0
  -44.3875    1.0866   18.9346 C   0  0  0  0  0  0
  -43.2771    2.0686   18.5277 C   0  0  0  0  0  0
  -51.2596   -3.9579   19.2459 C   0  0  0  0  0  0
  -50.2200   -4.2721   18.3990 C   0  0  0  0  0  0
  -51.7959   -5.0008   20.0504 C   0  0  0  0  0  0
  -51.2687   -6.3439   19.9228 C   0  0  0  0  0  0
  -49.6183   -3.2808   17.4720 C   0  0  0  0  0  0
  -50.1877   -6.5283   19.0593 C   0  0  0  0  0  0
  -51.7891   -7.4441   20.6244 C   0  0  0  0  0  0
  -49.6431   -7.7922   18.9193 C   0  0  0  0  0  0
  -50.4018   -2.7600   16.4499 C   0  0  0  0  0  0
  -48.3097   -2.8335   17.5968 C   0  0  0  0  0  0
  -51.2298   -8.6845   20.4706 C   0  0  0  0  0  0
  -50.1520   -8.8646   19.6162 C   0  0  0  0  0  0
  -49.8910   -1.8350   15.5705 C   0  0  0  0  0  0
  -47.7953   -1.9054   16.7228 C   0  0  0  0  0  0
  -48.5790   -1.4038   15.7060 C   0  0  0  0  0  0
  -47.8913    1.9825   19.7530 H   0  0  0  0  0  0
  -52.2770    2.0500   17.8625 H   0  0  0  0  0  0
  -53.4390   -1.1457   18.2537 H   0  0  0  0  0  0
  -44.1879   -1.8303   21.9858 H   0  0  0  0  0  0
  -44.7785   -2.6822   17.3898 H   0  0  0  0  0  0
  -43.3593    0.2970   16.5512 H   0  0  0  0  0  0
  -52.9925   -8.1152   22.0273 H   0  0  0  0  0  0
  -49.0495  -10.1534   18.6280 H   0  0  0  0  0  0
  -50.6086   -0.3357   14.5158 H   0  0  0  0  0  0
  -48.6505   -0.3814   14.0283 H   0  0  0  0  0  0
  1 17  1  0  0  0
  1 25  1  0  0  0
  2 22  1  0  0  0
  2 26  1  0  0  0
  3 22  1  0  0  0
  3 27  1  0  0  0
  4 18  1  0  0  0
  4 44  1  0  0  0
  5 19  1  0  0  0
  5 45  1  0  0  0
  6 25  1  0  0  0
  6 29  1  0  0  0
  7 20  1  0  0  0
  7 46  1  0  0  0
  8 21  1  0  0  0
  8 47  1  0  0  0
  9 23  1  0  0  0
  9 48  1  0  0  0
 10 24  1  0  0  0
 10 49  1  0  0  0
 11 30  1  0  0  0
 11 34  1  0  0  0
 12 31  2  0  0  0
 13 35  1  0  0  0
 13 50  1  0  0  0
 14 40  1  0  0  0
 14 51  1  0  0  0
 15 41  1  0  0  0
 15 52  1  0  0  0
 16 43  1  0  0  0
 16 53  1  0  0  0
 17 18  1  0  0  0
 17 26  1  0  0  0
 18 19  1  0  0  0
 19 20  1  0  0  0
 20 25  1  0  0  0
 21 22  1  0  0  0
 23 21  1  0  0  0
 24 23  1  0  0  0
 27 24  1  0  0  0
 27 28  1  0  0  0
 29 30  2  0  0  0
 29 31  1  0  0  0
 30 33  1  0  0  0
 31 32  1  0  0  0
 32 34  2  0  0  0
 32 35  1  0  0  0
 33 37  2  0  0  0
 33 38  1  0  0  0
 34 36  1  0  0  0
 35 39  2  0  0  0
 36 40  2  0  0  0
 37 41  1  0  0  0
 38 42  2  0  0  0
 39 40  1  0  0  0
 41 43  2  0  0  0
 42 43  1  0  0  0
M  END
>  <CHROM.0>
-52.40117578,60.29746660,178.94459461

>  <CHROM.1>
174.30745854,-142.93901909,-53.10677417,-178.23150802,-68.73250333,-26.86653181
-179.25260358,60.70518279,178.86776152,-174.33411268,-168.25683145,-18.18697605
132.39595781,-14.34101947,174.72026397,116.18859781,-48.84552423,-2.37497835
18.83488767,2.21181931,0.14495765,2.90936620

>  <HEADER>
                                                                          

>  <MASTER>
        0    0    0    0    0    0    0    0   73    0   73    0          

>  <Name>
Rutin.pdb

>  <RI>
-6.03311e+08

>  <Rbt.Current_Directory>
/root/miniconda3/envs/rdock/share/rxdock-2013.1.1_148c5bd1-0/data/ligands/prepped_ligands/Rutin

>  <Rbt.Executable>
rbdock/0.1.0

>  <Rbt.Library>
librxdock.so/0.1.0

>  <Rbt.Parameter_File>
/root/miniconda3/envs/rdock/share/rxdock-2013.1.1_148c5bd1-0/data/scripts/dock.prm

>  <Rbt.Receptor>
def.prm

>  <SCORE>
-22.3123

>  <SCORE.INTER>
-4.51025

>  <SCORE.INTER.CONST>
1

>  <SCORE.INTER.POLAR>
-0.258532

>  <SCORE.INTER.REPUL>
0.236553

>  <SCORE.INTER.ROT>
6

>  <SCORE.INTER.VDW>
-16.214

>  <SCORE.INTER.norm>
-0.104889

>  <SCORE.INTRA>
-16.8872

>  <SCORE.INTRA.DIHEDRAL>
-35.4361

>  <SCORE.INTRA.DIHEDRAL.0>
50.0277

>  <SCORE.INTRA.POLAR>
-0.60959

>  <SCORE.INTRA.POLAR.0>
-0.00836998

>  <SCORE.INTRA.REPUL>
0

>  <SCORE.INTRA.REPUL.0>
0

>  <SCORE.INTRA.VDW>
2.90346

>  <SCORE.INTRA.VDW.0>
-4.42487

>  <SCORE.INTRA.norm>
-0.392725

>  <SCORE.RESTR>
0.00551327

>  <SCORE.RESTR.CAVITY>
0.00551327

>  <SCORE.RESTR.norm>
0.000128216

>  <SCORE.SYSTEM>
-0.920355

>  <SCORE.SYSTEM.CONST>
0

>  <SCORE.SYSTEM.DIHEDRAL>
0.139372

>  <SCORE.SYSTEM.VDW>
-0.990041

>  <SCORE.SYSTEM.norm>
-0.0214036

>  <SCORE.heavy>
43

>  <SCORE.norm>
-0.51889

>  <TITLE>
    Rutin_D                                                               

$$$$
Rutin.pdb
  RxDock  02242112113D
librxdock.so/0.1.0
 53 57  0  0  0  0  0  0  0  0999 V2000
  -50.1000   -4.8828   18.4861 O   0  0  0  0  0  0
  -49.1764   -2.9285   19.8051 O   0  0  0  0  0  0
  -50.4346   -0.8849   20.0846 O   0  0  0  0  0  0
  -51.0969   -6.2486   21.8060 O   0  0  0  0  0  0
  -50.7783   -8.6423   20.2398 O   0  0  0  0  0  0
  -50.1887   -5.8236   16.3018 O   0  0  0  0  0  0
  -50.9976   -8.3096   17.3899 O   0  0  0  0  0  0
  -47.8609    0.5029   20.1414 O   0  0  0  0  0  0
  -47.4410    0.1936   17.3730 O   0  0  0  0  0  0
  -50.1815    0.0239   16.4853 O   0  0  0  0  0  0
  -51.8242   -2.8814   14.7166 O   0  0  0  0  0  0
  -48.1508   -4.2617   15.6425 O   0  0  0  0  0  0
  -47.0668   -2.1792   14.3734 O   0  0  0  0  0  0
  -50.1122    0.9705   12.6043 O   0  0  0  0  0  0
  -53.8604   -8.2900   16.3479 O   0  0  0  0  0  0
  -56.3222   -7.0603   16.2862 O   0  0  0  0  0  0
  -50.6535   -4.8749   19.8201 C   0  0  0  0  0  0
  -50.4568   -6.2373   20.5210 C   0  0  0  0  0  0
  -51.0359   -7.3630   19.6423 C   0  0  0  0  0  0
  -50.4233   -7.2992   18.2318 C   0  0  0  0  0  0
  -48.0541   -0.7800   19.5255 C   0  0  0  0  0  0
  -49.1677   -1.5587   20.2532 C   0  0  0  0  0  0
  -48.4212   -0.6184   18.0371 C   0  0  0  0  0  0
  -49.8231    0.0038   17.8749 C   0  0  0  0  0  0
  -50.6879   -5.8987   17.6480 C   0  0  0  0  0  0
  -49.9781   -3.7710   20.6500 C   0  0  0  0  0  0
  -50.8471   -0.8013   18.7048 C   0  0  0  0  0  0
  -52.2296   -0.1338   18.6284 C   0  0  0  0  0  0
  -50.3956   -4.6129   15.6407 C   0  0  0  0  0  0
  -51.6336   -4.1155   15.2992 C   0  0  0  0  0  0
  -49.2540   -3.8338   15.3054 C   0  0  0  0  0  0
  -49.4262   -2.5859   14.5905 C   0  0  0  0  0  0
  -52.8909   -4.8649   15.5468 C   0  0  0  0  0  0
  -50.7337   -2.1686   14.3361 C   0  0  0  0  0  0
  -48.3504   -1.7932   14.1573 C   0  0  0  0  0  0
  -50.9440   -0.9748   13.6697 C   0  0  0  0  0  0
  -52.8146   -6.2221   15.8332 C   0  0  0  0  0  0
  -54.1414   -4.2616   15.5271 C   0  0  0  0  0  0
  -48.5856   -0.6138   13.5023 C   0  0  0  0  0  0
  -49.8857   -0.1982   13.2554 C   0  0  0  0  0  0
  -53.9508   -6.9572   16.0758 C   0  0  0  0  0  0
  -55.2803   -4.9910   15.7734 C   0  0  0  0  0  0
  -55.1930   -6.3393   16.0458 C   0  0  0  0  0  0
  -52.0875   -6.0923   21.7219 H   0  0  0  0  0  0
  -49.7901   -8.8110   20.3311 H   0  0  0  0  0  0
  -50.7671   -9.2324   17.7174 H   0  0  0  0  0  0
  -47.0753    0.9869   19.7407 H   0  0  0  0  0  0
  -47.4407    1.1335   17.7320 H   0  0  0  0  0  0
  -49.4804    0.4849   15.9312 H   0  0  0  0  0  0
  -46.4635   -1.9147   13.6176 H   0  0  0  0  0  0
  -49.4065    1.1469   11.9084 H   0  0  0  0  0  0
  -52.9033   -8.5773   16.4672 H   0  0  0  0  0  0
  -56.1275   -8.0456   16.3290 H   0  0  0  0  0  0
  1 17  1  0  0  0
  1 25  1  0  0  0
  2 22  1  0  0  0
  2 26  1  0  0  0
  3 22  1  0  0  0
  3 27  1  0  0  0
  4 18  1  0  0  0
  4 44  1  0  0  0
  5 19  1  0  0  0
  5 45  1  0  0  0
  6 25  1  0  0  0
  6 29  1  0  0  0
  7 20  1  0  0  0
  7 46  1  0  0  0
  8 21  1  0  0  0
  8 47  1  0  0  0
  9 23  1  0  0  0
  9 48  1  0  0  0
 10 24  1  0  0  0
 10 49  1  0  0  0
 11 30  1  0  0  0
 11 34  1  0  0  0
 12 31  2  0  0  0
 13 35  1  0  0  0
 13 50  1  0  0  0
 14 40  1  0  0  0
 14 51  1  0  0  0
 15 41  1  0  0  0
 15 52  1  0  0  0
 16 43  1  0  0  0
 16 53  1  0  0  0
 17 18  1  0  0  0
 17 26  1  0  0  0
 18 19  1  0  0  0
 19 20  1  0  0  0
 20 25  1  0  0  0
 21 22  1  0  0  0
 23 21  1  0  0  0
 24 23  1  0  0  0
 27 24  1  0  0  0
 27 28  1  0  0  0
 29 30  2  0  0  0
 29 31  1  0  0  0
 30 33  1  0  0  0
 31 32  1  0  0  0
 32 34  2  0  0  0
 32 35  1  0  0  0
 33 37  2  0  0  0
 33 38  1  0  0  0
 34 36  1  0  0  0
 35 39  2  0  0  0
 36 40  2  0  0  0
 37 41  1  0  0  0
 38 42  2  0  0  0
 39 40  1  0  0  0
 41 43  2  0  0  0
 42 43  1  0  0  0
M  END
>  <CHROM.0>
-58.96947814,173.52030708,-50.32342230

>  <CHROM.1>
-69.36764726,146.20790032,60.44208024,-60.97626055,-58.63918757,-65.47808323
-64.78123101,174.15982271,-64.87870109,-54.18816328,144.79538681,-145.36011691
8.01272305,-8.83481395,10.04635906,165.16891029,-50.67569610,-3.60141103
17.10134143,-2.47781878,-0.92192442,-1.01150749

>  <HEADER>
                                                                          

>  <MASTER>
        0    0    0    0    0    0    0    0   73    0   73    0          

>  <Name>
Rutin.pdb

>  <RI>
-6.03311e+08

>  <Rbt.Current_Directory>
/root/miniconda3/envs/rdock/share/rxdock-2013.1.1_148c5bd1-0/data/ligands/prepped_ligands/Rutin

>  <Rbt.Executable>
rbdock/0.1.0

>  <Rbt.Library>
librxdock.so/0.1.0

>  <Rbt.Parameter_File>
/root/miniconda3/envs/rdock/share/rxdock-2013.1.1_148c5bd1-0/data/scripts/dock.prm

>  <Rbt.Receptor>
def.prm

>  <SCORE>
-41.2621

>  <SCORE.INTER>
-20.9059

>  <SCORE.INTER.CONST>
1

>  <SCORE.INTER.POLAR>
-2.03946

>  <SCORE.INTER.REPUL>
0.291789

>  <SCORE.INTER.ROT>
6

>  <SCORE.INTER.VDW>
-26.8307

>  <SCORE.INTER.norm>
-0.486184

>  <SCORE.INTRA>
-19.7162

>  <SCORE.INTRA.DIHEDRAL>
-31.9923

>  <SCORE.INTRA.DIHEDRAL.0>
50.0277

>  <SCORE.INTRA.POLAR>
-1.08045

>  <SCORE.INTRA.POLAR.0>
-0.00836998

>  <SCORE.INTRA.REPUL>
0

>  <SCORE.INTRA.REPUL.0>
0

>  <SCORE.INTRA.VDW>
-0.0464649

>  <SCORE.INTRA.VDW.0>
-4.42487

>  <SCORE.INTRA.norm>
-0.458516

>  <SCORE.RESTR>
0.205958

>  <SCORE.RESTR.CAVITY>
0.205958

>  <SCORE.RESTR.norm>
0.00478971

>  <SCORE.SYSTEM>
-0.845979

>  <SCORE.SYSTEM.CONST>
0

>  <SCORE.SYSTEM.DIHEDRAL>
0.425839

>  <SCORE.SYSTEM.POLAR>
-0.0174118

>  <SCORE.SYSTEM.VDW>
-0.999698

>  <SCORE.SYSTEM.norm>
-0.0196739

>  <SCORE.heavy>
43

>  <SCORE.norm>
-0.959584

>  <TITLE>
    Rutin_D                                                               

$$$$
Rutin.pdb
  RxDock  02242112113D
librxdock.so/0.1.0
 53 57  0  0  0  0  0  0  0  0999 V2000
  -47.4582   -2.7043   17.0099 O   0  0  0  0  0  0
  -45.3179   -2.2915   18.4778 O   0  0  0  0  0  0
  -43.9335   -0.3165   18.3340 O   0  0  0  0  0  0
  -44.8523   -1.5507   14.6102 O   0  0  0  0  0  0
  -47.1281    0.0325   13.8366 O   0  0  0  0  0  0
  -49.8343   -2.5919   16.9332 O   0  0  0  0  0  0
  -49.6985   -1.0291   14.5758 O   0  0  0  0  0  0
  -46.2354    1.1754   19.3481 O   0  0  0  0  0  0
  -45.9412    0.1804   21.9672 O   0  0  0  0  0  0
  -43.1070   -0.3621   21.9618 O   0  0  0  0  0  0
  -49.8911   -4.4250   20.1707 O   0  0  0  0  0  0
  -50.3938   -5.0843   16.2249 O   0  0  0  0  0  0
  -50.6030   -7.7010   16.7059 O   0  0  0  0  0  0
  -50.4356   -8.9821   21.2508 O   0  0  0  0  0  0
  -49.3657    1.3859   18.7689 O   0  0  0  0  0  0
  -48.4277    1.6241   21.3456 O   0  0  0  0  0  0
  -46.2271   -2.7460   16.2559 C   0  0  0  0  0  0
  -46.0272   -1.4561   15.4297 C   0  0  0  0  0  0
  -47.2620   -1.2107   14.5412 C   0  0  0  0  0  0
  -48.5379   -1.2020   15.4019 C   0  0  0  0  0  0
  -46.0479   -0.2319   19.5640 C   0  0  0  0  0  0
  -45.2737   -0.8539   18.3850 C   0  0  0  0  0  0
  -45.2819   -0.4829   20.8780 C   0  0  0  0  0  0
  -43.8208   -0.0009   20.7701 C   0  0  0  0  0  0
  -48.6178   -2.5352   16.1691 C   0  0  0  0  0  0
  -45.0415   -2.9256   17.2178 C   0  0  0  0  0  0
  -43.1627   -0.6169   19.5158 C   0  0  0  0  0  0
  -41.7372   -0.0679   19.3446 C   0  0  0  0  0  0
  -49.9109   -3.6094   17.8844 C   0  0  0  0  0  0
  -49.7344   -3.4234   19.2375 C   0  0  0  0  0  0
  -50.2009   -4.9253   17.4296 C   0  0  0  0  0  0
  -50.2574   -6.0140   18.3834 C   0  0  0  0  0  0
  -49.3725   -2.1075   19.8218 C   0  0  0  0  0  0
  -50.1011   -5.6923   19.7326 C   0  0  0  0  0  0
  -50.4647   -7.3525   18.0109 C   0  0  0  0  0  0
  -50.1637   -6.6996   20.6786 C   0  0  0  0  0  0
  -49.5293   -0.9659   19.0459 C   0  0  0  0  0  0
  -48.9044   -1.9658   21.1213 C   0  0  0  0  0  0
  -50.5258   -8.3307   18.9673 C   0  0  0  0  0  0
  -50.3758   -8.0081   20.3080 C   0  0  0  0  0  0
  -49.2137    0.2756   19.5451 C   0  0  0  0  0  0
  -48.5915   -0.7263   21.6270 C   0  0  0  0  0  0
  -48.7411    0.3982   20.8441 C   0  0  0  0  0  0
  -44.0173   -1.5819   15.1711 H   0  0  0  0  0  0
  -46.3798   -0.0067   13.1644 H   0  0  0  0  0  0
  -50.5427   -1.0507   15.1225 H   0  0  0  0  0  0
  -46.8296    1.5780   20.0530 H   0  0  0  0  0  0
  -45.4864   -0.0143   22.8432 H   0  0  0  0  0  0
  -43.1539   -1.3517   22.1329 H   0  0  0  0  0  0
  -51.0315   -6.9724   16.1667 H   0  0  0  0  0  0
  -50.5249   -9.8936   20.8331 H   0  0  0  0  0  0
  -49.7312    1.1530   17.8606 H   0  0  0  0  0  0
  -49.2532    2.1556   21.5612 H   0  0  0  0  0  0
  1 17  1  0  0  0
  1 25  1  0  0  0
  2 22  1  0  0  0
  2 26  1  0  0  0
  3 22  1  0  0  0
  3 27  1  0  0  0
  4 18  1  0  0  0
  4 44  1  0  0  0
  5 19  1  0  0  0
  5 45  1  0  0  0
  6 25  1  0  0  0
  6 29  1  0  0  0
  7 20  1  0  0  0
  7 46  1  0  0  0
  8 21  1  0  0  0
  8 47  1  0  0  0
  9 23  1  0  0  0
  9 48  1  0  0  0
 10 24  1  0  0  0
 10 49  1  0  0  0
 11 30  1  0  0  0
 11 34  1  0  0  0
 12 31  2  0  0  0
 13 35  1  0  0  0
 13 50  1  0  0  0
 14 40  1  0  0  0
 14 51  1  0  0  0
 15 41  1  0  0  0
 15 52  1  0  0  0
 16 43  1  0  0  0
 16 53  1  0  0  0
 17 18  1  0  0  0
 17 26  1  0  0  0
 18 19  1  0  0  0
 19 20  1  0  0  0
 20 25  1  0  0  0
 21 22  1  0  0  0
 23 21  1  0  0  0
 24 23  1  0  0  0
 27 24  1  0  0  0
 27 28  1  0  0  0
 29 30  2  0  0  0
 29 31  1  0  0  0
 30 33  1  0  0  0
 31 32  1  0  0  0
 32 34  2  0  0  0
 32 35  1  0  0  0
 33 37  2  0  0  0
 33 38  1  0  0  0
 34 36  1  0  0  0
 35 39  2  0  0  0
 36 40  2  0  0  0
 37 41  1  0  0  0
 38 42  2  0  0  0
 39 40  1  0  0  0
 41 43  2  0  0  0
 42 43  1  0  0  0
M  END
>  <CHROM.0>
53.48186882,67.94915997,-65.32596908

>  <CHROM.1>
-76.56969728,-72.23023841,-66.59515501,66.91449873,-44.29696367,102.56565831
178.19977381,173.40052582,176.74644045,56.35231216,-31.36801770,-175.68958634
0.96751532,74.40121955,-31.80365464,-163.33175677,-47.73685109,-2.38684630
18.51387995,3.12198613,0.89653160,1.67684438

>  <HEADER>
                                                                          

>  <MASTER>
        0    0    0    0    0    0    0    0   73    0   73    0          

>  <Name>
Rutin.pdb

>  <RI>
-6.03311e+08

>  <Rbt.Current_Directory>
/root/miniconda3/envs/rdock/share/rxdock-2013.1.1_148c5bd1-0/data/ligands/prepped_ligands/Rutin

>  <Rbt.Executable>
rbdock/0.1.0

>  <Rbt.Library>
librxdock.so/0.1.0

>  <Rbt.Parameter_File>
/root/miniconda3/envs/rdock/share/rxdock-2013.1.1_148c5bd1-0/data/scripts/dock.prm

>  <Rbt.Receptor>
def.prm

>  <SCORE>
-26.4164

>  <SCORE.INTER>
-5.65048

>  <SCORE.INTER.CONST>
1

>  <SCORE.INTER.POLAR>
-1.13751

>  <SCORE.INTER.REPUL>
0.58617

>  <SCORE.INTER.ROT>
6

>  <SCORE.INTER.VDW>
-16.1138

>  <SCORE.INTER.norm>
-0.131406

>  <SCORE.INTRA>
-20.7569

>  <SCORE.INTRA.DIHEDRAL>
-32.9107

>  <SCORE.INTRA.DIHEDRAL.0>
50.0277

>  <SCORE.INTRA.POLAR>
-0.99163

>  <SCORE.INTRA.POLAR.0>
-0.00836998

>  <SCORE.INTRA.REPUL>
0.00029185

>  <SCORE.INTRA.REPUL.0>
0

>  <SCORE.INTRA.VDW>
-0.931477

>  <SCORE.INTRA.VDW.0>
-4.42487

>  <SCORE.INTRA.norm>
-0.482719

>  <SCORE.RESTR>
0.858757

>  <SCORE.RESTR.CAVITY>
0.858757

>  <SCORE.RESTR.norm>
0.0199711

>  <SCORE.SYSTEM>
-0.8678

>  <SCORE.SYSTEM.CONST>
0

>  <SCORE.SYSTEM.DIHEDRAL>
0.489909

>  <SCORE.SYSTEM.VDW>
-1.11275

>  <SCORE.SYSTEM.norm>
-0.0201814

>  <SCORE.heavy>
43

>  <SCORE.norm>
-0.614335

>  <TITLE>
    Rutin_D                                                               

$$$$
Rutin.pdb
  RxDock  02242112113D
librxdock.so/0.1.0
 53 57  0  0  0  0  0  0  0  0999 V2000
  -51.8910   -4.4596   18.4463 O   0  0  0  0  0  0
  -50.1671   -3.0420   19.8383 O   0  0  0  0  0  0
  -50.5679   -0.6735   20.0979 O   0  0  0  0  0  0
  -51.8853   -5.9960   21.8404 O   0  0  0  0  0  0
  -51.7082   -8.3058   20.1323 O   0  0  0  0  0  0
  -52.4146   -5.3616   16.3070 O   0  0  0  0  0  0
  -52.6583   -7.9451   17.4402 O   0  0  0  0  0  0
  -47.6644   -0.3352   20.0057 O   0  0  0  0  0  0
  -47.5250   -0.8248   17.2350 O   0  0  0  0  0  0
  -50.1752    0.0161   16.4625 O   0  0  0  0  0  0
  -49.0359   -3.9026   15.7586 O   0  0  0  0  0  0
  -52.8741   -3.3333   14.6632 O   0  0  0  0  0  0
  -52.1614   -1.0997   13.3883 O   0  0  0  0  0  0
  -47.5426   -0.1038   13.3988 O   0  0  0  0  0  0
  -49.1838   -9.3624   17.1730 O   0  0  0  0  0  0
  -48.3546   -8.7621   19.7280 O   0  0  0  0  0  0
  -52.0958   -4.5417   19.8737 C   0  0  0  0  0  0
  -51.5872   -5.8857   20.4405 C   0  0  0  0  0  0
  -52.2410   -7.0535   19.6766 C   0  0  0  0  0  0
  -52.0060   -6.8918   18.1641 C   0  0  0  0  0  0
  -48.3470   -1.4659   19.4418 C   0  0  0  0  0  0
  -49.6320   -1.7652   20.2390 C   0  0  0  0  0  0
  -48.7016   -1.2053   17.9645 C   0  0  0  0  0  0
  -49.7815   -0.1116   17.8368 C   0  0  0  0  0  0
  -52.5551   -5.5201   17.7291 C   0  0  0  0  0  0
  -51.3589   -3.3836   20.5658 C   0  0  0  0  0  0
  -50.9879   -0.4667   18.7334 C   0  0  0  0  0  0
  -52.0289    0.6634   18.6890 C   0  0  0  0  0  0
  -51.3778   -4.5292   15.8851 C   0  0  0  0  0  0
  -50.0584   -4.6866   16.2472 C   0  0  0  0  0  0
  -51.7011   -3.4520   15.0147 C   0  0  0  0  0  0
  -50.6568   -2.5470   14.5804 C   0  0  0  0  0  0
  -49.6106   -5.7389   17.1938 C   0  0  0  0  0  0
  -49.3516   -2.8349   14.9826 C   0  0  0  0  0  0
  -50.9013   -1.4174   13.7819 C   0  0  0  0  0  0
  -48.3215   -2.0053   14.5772 C   0  0  0  0  0  0
  -49.5968   -7.0606   16.7663 C   0  0  0  0  0  0
  -49.1821   -5.4557   18.4839 C   0  0  0  0  0  0
  -49.8635   -0.6139   13.3914 C   0  0  0  0  0  0
  -48.5664   -0.9049   13.7875 C   0  0  0  0  0  0
  -49.1844   -8.0692   17.6045 C   0  0  0  0  0  0
  -48.7645   -6.4600   19.3247 C   0  0  0  0  0  0
  -48.7654   -7.7689   18.8929 C   0  0  0  0  0  0
  -51.3786   -5.3116   22.3767 H   0  0  0  0  0  0
  -51.9168   -8.4598   21.1050 H   0  0  0  0  0  0
  -52.4680   -7.8832   16.4543 H   0  0  0  0  0  0
  -47.3826   -0.5136   20.9548 H   0  0  0  0  0  0
  -47.1401    0.0363   17.5853 H   0  0  0  0  0  0
  -49.4077    0.3161   15.8864 H   0  0  0  0  0  0
  -52.8364   -1.7618   13.7219 H   0  0  0  0  0  0
  -46.6714   -0.6075   13.3708 H   0  0  0  0  0  0
  -49.6459   -9.9697   17.8291 H   0  0  0  0  0  0
  -48.5861   -9.6695   19.3626 H   0  0  0  0  0  0
  1 17  1  0  0  0
  1 25  1  0  0  0
  2 22  1  0  0  0
  2 26  1  0  0  0
  3 22  1  0  0  0
  3 27  1  0  0  0
  4 18  1  0  0  0
  4 44  1  0  0  0
  5 19  1  0  0  0
  5 45  1  0  0  0
  6 25  1  0  0  0
  6 29  1  0  0  0
  7 20  1  0  0  0
  7 46  1  0  0  0
  8 21  1  0  0  0
  8 47  1  0  0  0
  9 23  1  0  0  0
  9 48  1  0  0  0
 10 24  1  0  0  0
 10 49  1  0  0  0
 11 30  1  0  0  0
 11 34  1  0  0  0
 12 31  2  0  0  0
 13 35  1  0  0  0
 13 50  1  0  0  0
 14 40  1  0  0  0
 14 51  1  0  0  0
 15 41  1  0  0  0
 15 52  1  0  0  0
 16 43  1  0  0  0
 16 53  1  0  0  0
 17 18  1  0  0  0
 17 26  1  0  0  0
 18 19  1  0  0  0
 19 20  1  0  0  0
 20 25  1  0  0  0
 21 22  1  0  0  0
 23 21  1  0  0  0
 24 23  1  0  0  0
 27 24  1  0  0  0
 27 28  1  0  0  0
 29 30  2  0  0  0
 29 31  1  0  0  0
 30 33  1  0  0  0
 31 32  1  0  0  0
 32 34  2  0  0  0
 32 35  1  0  0  0
 33 37  2  0  0  0
 33 38  1  0  0  0
 34 36  1  0  0  0
 35 39  2  0  0  0
 36 40  2  0  0  0
 37 41  1  0  0  0
 38 42  2  0  0  0
 39 40  1  0  0  0
 41 43  2  0  0  0
 42 43  1  0  0  0
M  END
>  <CHROM.0>
76.28984317,59.37682234,177.84101609

>  <CHROM.1>
-57.16304893,165.15485401,-65.60637133,62.69208149,19.12573778,54.98556199
-176.63695842,61.66002248,-62.66400008,-63.03239497,-0.93387349,26.30866488
-130.13761850,-12.08389287,-32.18279285,-106.66230359,-50.31073148,-3.82775142
17.53720695,-2.61805242,-1.40087759,-1.50678700

>  <HEADER>
                                                                          

>  <MASTER>
        0    0    0    0    0    0    0    0   73    0   73    0          

>  <Name>
Rutin.pdb

>  <RI>
-6.03311e+08

>  <Rbt.Current_Directory>
/root/miniconda3/envs/rdock/share/rxdock-2013.1.1_148c5bd1-0/data/ligands/prepped_ligands/Rutin

>  <Rbt.Executable>
rbdock/0.1.0

>  <Rbt.Library>
librxdock.so/0.1.0

>  <Rbt.Parameter_File>
/root/miniconda3/envs/rdock/share/rxdock-2013.1.1_148c5bd1-0/data/scripts/dock.prm

>  <Rbt.Receptor>
def.prm

>  <SCORE>
-33.2193

>  <SCORE.INTER>
-15.7202

>  <SCORE.INTER.CONST>
1

>  <SCORE.INTER.POLAR>
-2.13525

>  <SCORE.INTER.REPUL>
0.101264

>  <SCORE.INTER.ROT>
6

>  <SCORE.INTER.VDW>
-20.3666

>  <SCORE.INTER.norm>
-0.365585

>  <SCORE.INTRA>
-17.4864

>  <SCORE.INTRA.DIHEDRAL>
-29.1467

>  <SCORE.INTRA.DIHEDRAL.0>
50.0277

>  <SCORE.INTRA.POLAR>
0.00836998

>  <SCORE.INTRA.POLAR.0>
-0.00836998

>  <SCORE.INTRA.REPUL>
0

>  <SCORE.INTRA.REPUL.0>
0

>  <SCORE.INTRA.VDW>
-2.94152

>  <SCORE.INTRA.VDW.0>
-4.42487

>  <SCORE.INTRA.norm>
-0.406661

>  <SCORE.RESTR>
0.540367

>  <SCORE.RESTR.CAVITY>
0.540367

>  <SCORE.RESTR.norm>
0.0125667

>  <SCORE.SYSTEM>
-0.553109

>  <SCORE.SYSTEM.CONST>
0

>  <SCORE.SYSTEM.DIHEDRAL>
0.620703

>  <SCORE.SYSTEM.VDW>
-0.863461

>  <SCORE.SYSTEM.norm>
-0.012863

>  <SCORE.heavy>
43

>  <SCORE.norm>
-0.772542

>  <TITLE>
    Rutin_D                                                               

$$$$
Rutin.pdb
  RxDock  02242112123D
librxdock.so/0.1.0
 53 57  0  0  0  0  0  0  0  0999 V2000
  -47.3969   -2.0862   16.6174 O   0  0  0  0  0  0
  -45.2188   -0.3673   17.8308 O   0  0  0  0  0  0
  -44.4498    1.7378   18.7337 O   0  0  0  0  0  0
  -48.0969    1.0308   18.5343 O   0  0  0  0  0  0
  -49.7413   -0.8981   19.8978 O   0  0  0  0  0  0
  -48.6180   -4.1185   16.4097 O   0  0  0  0  0  0
  -50.4554   -3.2319   18.3734 O   0  0  0  0  0  0
  -45.4890    0.8281   21.3117 O   0  0  0  0  0  0
  -43.3971   -1.0193   21.6948 O   0  0  0  0  0  0
  -41.3353    0.2547   20.1286 O   0  0  0  0  0  0
  -51.3045   -6.6581   16.8314 O   0  0  0  0  0  0
  -50.7337   -2.9741   15.2956 O   0  0  0  0  0  0
  -53.2212   -3.0096   14.3297 O   0  0  0  0  0  0
  -55.7885   -6.8335   15.3845 O   0  0  0  0  0  0
  -48.5010  -10.3448   18.4374 O   0  0  0  0  0  0
  -46.0780   -9.2578   19.1609 O   0  0  0  0  0  0
  -47.4510   -0.6677   16.8835 C   0  0  0  0  0  0
  -47.9538   -0.3808   18.3157 C   0  0  0  0  0  0
  -49.3074   -1.0814   18.5421 C   0  0  0  0  0  0
  -49.1858   -2.5812   18.2185 C   0  0  0  0  0  0
  -45.1166   -0.0642   20.2498 C   0  0  0  0  0  0
  -45.3415    0.6107   18.8823 C   0  0  0  0  0  0
  -43.6393   -0.4833   20.3851 C   0  0  0  0  0  0
  -42.6971    0.7079   20.1171 C   0  0  0  0  0  0
  -48.6792   -2.7284   16.7714 C   0  0  0  0  0  0
  -46.0519   -0.0573   16.7012 C   0  0  0  0  0  0
  -43.0578    1.3605   18.7645 C   0  0  0  0  0  0
  -42.1892    2.6071   18.5320 C   0  0  0  0  0  0
  -49.8413   -4.7850   16.3379 C   0  0  0  0  0  0
  -50.0698   -6.0464   16.8412 C   0  0  0  0  0  0
  -50.9289   -4.1148   15.7131 C   0  0  0  0  0  0
  -52.2063   -4.7868   15.5911 C   0  0  0  0  0  0
  -48.9980   -6.8639   17.4632 C   0  0  0  0  0  0
  -52.3250   -6.0482   16.1767 C   0  0  0  0  0  0
  -53.3090   -4.2268   14.9248 C   0  0  0  0  0  0
  -53.5324   -6.7187   16.0973 C   0  0  0  0  0  0
  -49.2250   -8.2190   17.6684 C   0  0  0  0  0  0
  -47.7669   -6.3359   17.8286 C   0  0  0  0  0  0
  -54.4943   -4.9099   14.8631 C   0  0  0  0  0  0
  -54.6119   -6.1609   15.4506 C   0  0  0  0  0  0
  -48.2606   -9.0182   18.2352 C   0  0  0  0  0  0
  -46.7974   -7.1315   18.3917 C   0  0  0  0  0  0
  -47.0380   -8.4725   18.6003 C   0  0  0  0  0  0
  -48.7731    1.4310   17.9054 H   0  0  0  0  0  0
  -50.6733   -1.2531   20.0348 H   0  0  0  0  0  0
  -50.8013   -3.1391   19.3135 H   0  0  0  0  0  0
  -46.4695    1.0501   21.2765 H   0  0  0  0  0  0
  -42.4240   -1.2387   21.8259 H   0  0  0  0  0  0
  -41.1633   -0.4120   19.3959 H   0  0  0  0  0  0
  -52.2999   -2.6212   14.4048 H   0  0  0  0  0  0
  -56.5227   -6.2548   15.0111 H   0  0  0  0  0  0
  -47.6500  -10.8493   18.6221 H   0  0  0  0  0  0
  -46.4769   -9.9393   19.7829 H   0  0  0  0  0  0
  1 17  1  0  0  0
  1 25  1  0  0  0
  2 22  1  0  0  0
  2 26  1  0  0  0
  3 22  1  0  0  0
  3 27  1  0  0  0
  4 18  1  0  0  0
  4 44  1  0  0  0
  5 19  1  0  0  0
  5 45  1  0  0  0
  6 25  1  0  0  0
  6 29  1  0  0  0
  7 20  1  0  0  0
  7 46  1  0  0  0
  8 21  1  0  0  0
  8 47  1  0  0  0
  9 23  1  0  0  0
  9 48  1  0  0  0
 10 24  1  0  0  0
 10 49  1  0  0  0
 11 30  1  0  0  0
 11 34  1  0  0  0
 12 31  2  0  0  0
 13 35  1  0  0  0
 13 50  1  0  0  0
 14 40  1  0  0  0
 14 51  1  0  0  0
 15 41  1  0  0  0
 15 52  1  0  0  0
 16 43  1  0  0  0
 16 53  1  0  0  0
 17 18  1  0  0  0
 17 26  1  0  0  0
 18 19  1  0  0  0
 19 20  1  0  0  0
 20 25  1  0  0  0
 21 22  1  0  0  0
 23 21  1  0  0  0
 24 23  1  0  0  0
 27 24  1  0  0  0
 27 28  1  0  0  0
 29 30  2  0  0  0
 29 31  1  0  0  0
 30 33  1  0  0  0
 31 32  1  0  0  0
 32 34  2  0  0  0
 32 35  1  0  0  0
 33 37  2  0  0  0
 33 38  1  0  0  0
 34 36  1  0  0  0
 35 39  2  0  0  0
 36 40  2  0  0  0
 37 41  1  0  0  0
 38 42  2  0  0  0
 39 40  1  0  0  0
 41 43  2  0  0  0
 42 43  1  0  0  0
M  END
>  <CHROM.0>
-179.68654695,-174.86928660,54.49257602

>  <CHROM.1>
-87.08636767,-88.26649849,61.44989411,173.16195335,-171.11092126,-136.63426741
-59.70359440,63.06512757,-175.96978468,62.61957929,2.18998196,171.28408135
164.80170758,-37.56541602,-76.57055914,15.18678635,-48.28538980,-3.23656734
17.77491076,0.65355216,-0.44667739,-0.07797542

>  <HEADER>
                                                                          

>  <MASTER>
        0    0    0    0    0    0    0    0   73    0   73    0          

>  <Name>
Rutin.pdb

>  <RI>
-6.03311e+08

>  <Rbt.Current_Directory>
/root/miniconda3/envs/rdock/share/rxdock-2013.1.1_148c5bd1-0/data/ligands/prepped_ligands/Rutin

>  <Rbt.Executable>
rbdock/0.1.0

>  <Rbt.Library>
librxdock.so/0.1.0

>  <Rbt.Parameter_File>
/root/miniconda3/envs/rdock/share/rxdock-2013.1.1_148c5bd1-0/data/scripts/dock.prm

>  <Rbt.Receptor>
def.prm

>  <SCORE>
-25.3769

>  <SCORE.INTER>
-12.8553

>  <SCORE.INTER.CONST>
1

>  <SCORE.INTER.POLAR>
0

>  <SCORE.INTER.REPUL>
0.0296925

>  <SCORE.INTER.ROT>
6

>  <SCORE.INTER.VDW>
-24.4038

>  <SCORE.INTER.norm>
-0.298961

>  <SCORE.INTRA>
-12.9458

>  <SCORE.INTRA.DIHEDRAL>
-37.1185

>  <SCORE.INTRA.DIHEDRAL.0>
50.0277

>  <SCORE.INTRA.POLAR>
0.00836998

>  <SCORE.INTRA.POLAR.0>
-0.00836998

>  <SCORE.INTRA.REPUL>
0

>  <SCORE.INTRA.REPUL.0>
0

>  <SCORE.INTRA.VDW>
5.58499

>  <SCORE.INTRA.VDW.0>
-4.42487

>  <SCORE.INTRA.norm>
-0.301065

>  <SCORE.RESTR>
1.40998

>  <SCORE.RESTR.CAVITY>
1.40998

>  <SCORE.RESTR.norm>
0.0327902

>  <SCORE.SYSTEM>
-0.985789

>  <SCORE.SYSTEM.CONST>
0

>  <SCORE.SYSTEM.DIHEDRAL>
0.208086

>  <SCORE.SYSTEM.VDW>
-1.08983

>  <SCORE.SYSTEM.norm>
-0.0229253

>  <SCORE.heavy>
43

>  <SCORE.norm>
-0.590161

>  <TITLE>
    Rutin_D                                                               

$$$$
Rutin.pdb
  RxDock  02242112123D
librxdock.so/0.1.0
 53 57  0  0  0  0  0  0  0  0999 V2000
  -49.5268   -1.5747   16.8478 O   0  0  0  0  0  0
  -46.0754   -0.2948   17.1747 O   0  0  0  0  0  0
  -45.9955   -1.5317   19.2488 O   0  0  0  0  0  0
  -46.2859   -1.8714   15.0342 O   0  0  0  0  0  0
  -48.1050   -3.1955   13.2393 O   0  0  0  0  0  0
  -51.5543   -2.8080   16.6675 O   0  0  0  0  0  0
  -50.5232   -4.2034   14.4296 O   0  0  0  0  0  0
  -43.5308   -2.7442   18.2444 O   0  0  0  0  0  0
  -42.0146   -0.4046   18.6487 O   0  0  0  0  0  0
  -43.5310    0.7885   20.7943 O   0  0  0  0  0  0
  -52.6897   -6.1977   17.6998 O   0  0  0  0  0  0
  -53.1656   -3.5491   14.6973 O   0  0  0  0  0  0
  -54.6098   -5.3508   13.3593 O   0  0  0  0  0  0
  -55.3804   -9.4441   15.5901 O   0  0  0  0  0  0
  -48.6669   -6.7073   20.7281 O   0  0  0  0  0  0
  -48.5614   -4.2984   22.0555 O   0  0  0  0  0  0
  -48.0936   -1.5758   16.6688 C   0  0  0  0  0  0
  -47.7101   -1.7733   15.1855 C   0  0  0  0  0  0
  -48.3795   -3.0498   14.6405 C   0  0  0  0  0  0
  -49.8981   -2.9943   14.8843 C   0  0  0  0  0  0
  -44.0314   -1.4774   17.7893 C   0  0  0  0  0  0
  -45.5706   -1.4518   17.8701 C   0  0  0  0  0  0
  -43.4481   -0.3274   18.6340 C   0  0  0  0  0  0
  -43.9958   -0.3634   20.0753 C   0  0  0  0  0  0
  -50.1432   -2.7964   16.3919 C   0  0  0  0  0  0
  -47.5119   -0.2455   17.1743 C   0  0  0  0  0  0
  -45.5391   -0.4170   20.0425 C   0  0  0  0  0  0
  -46.0927   -0.5507   21.4702 C   0  0  0  0  0  0
  -52.1651   -4.0621   16.6717 C   0  0  0  0  0  0
  -52.0170   -4.9954   17.6736 C   0  0  0  0  0  0
  -53.0054   -4.3970   15.5743 C   0  0  0  0  0  0
  -53.6320   -5.7021   15.5272 C   0  0  0  0  0  0
  -51.1225   -4.7805   18.8387 C   0  0  0  0  0  0
  -53.4379   -6.5456   16.6222 C   0  0  0  0  0  0
  -54.4159   -6.1401   14.4469 C   0  0  0  0  0  0
  -54.0313   -7.7953   16.6255 C   0  0  0  0  0  0
  -50.3061   -5.8242   19.2558 C   0  0  0  0  0  0
  -51.0497   -3.5712   19.5170 C   0  0  0  0  0  0
  -54.9950   -7.3807   14.4762 C   0  0  0  0  0  0
  -54.8054   -8.2153   15.5678 C   0  0  0  0  0  0
  -49.4564   -5.6714   20.3257 C   0  0  0  0  0  0
  -50.1986   -3.4115   20.5847 C   0  0  0  0  0  0
  -49.4011   -4.4576   20.9961 C   0  0  0  0  0  0
  -45.9411   -2.7498   15.3840 H   0  0  0  0  0  0
  -47.1720   -2.8908   13.0158 H   0  0  0  0  0  0
  -50.3297   -4.3713   13.4568 H   0  0  0  0  0  0
  -42.5341   -2.8083   18.1253 H   0  0  0  0  0  0
  -41.6989   -1.2648   19.0642 H   0  0  0  0  0  0
  -42.5270    0.8121   20.8417 H   0  0  0  0  0  0
  -54.2504   -4.4253   13.4990 H   0  0  0  0  0  0
  -54.7074  -10.1615   15.8038 H   0  0  0  0  0  0
  -48.1657   -6.4825   21.5713 H   0  0  0  0  0  0
  -48.6877   -5.0259   22.7377 H   0  0  0  0  0  0
  1 17  1  0  0  0
  1 25  1  0  0  0
  2 22  1  0  0  0
  2 26  1  0  0  0
  3 22  1  0  0  0
  3 27  1  0  0  0
  4 18  1  0  0  0
  4 44  1  0  0  0
  5 19  1  0  0  0
  5 45  1  0  0  0
  6 25  1  0  0  0
  6 29  1  0  0  0
  7 20  1  0  0  0
  7 46  1  0  0  0
  8 21  1  0  0  0
  8 47  1  0  0  0
  9 23  1  0  0  0
  9 48  1  0  0  0
 10 24  1  0  0  0
 10 49  1  0  0  0
 11 30  1  0  0  0
 11 34  1  0  0  0
 12 31  2  0  0  0
 13 35  1  0  0  0
 13 50  1  0  0  0
 14 40  1  0  0  0
 14 51  1  0  0  0
 15 41  1  0  0  0
 15 52  1  0  0  0
 16 43  1  0  0  0
 16 53  1  0  0  0
 17 18  1  0  0  0
 17 26  1  0  0  0
 18 19  1  0  0  0
 19 20  1  0  0  0
 20 25  1  0  0  0
 21 22  1  0  0  0
 23 21  1  0  0  0
 24 23  1  0  0  0
 27 24  1  0  0  0
 27 28  1  0  0  0
 29 30  2  0  0  0
 29 31  1  0  0  0
 30 33  1  0  0  0
 31 32  1  0  0  0
 32 34  2  0  0  0
 32 35  1  0  0  0
 33 37  2  0  0  0
 33 38  1  0  0  0
 34 36  1  0  0  0
 35 39  2  0  0  0
 36 40  2  0  0  0
 37 41  1  0  0  0
 38 42  2  0  0  0
 39 40  1  0  0  0
 41 43  2  0  0  0
 42 43  1  0  0  0
M  END
>  <CHROM.0>
53.94934825,-176.27114294,-174.57337524

>  <CHROM.1>
-58.46805583,-51.92352313,72.18779597,36.71073471,-160.25079734,73.76437547
-56.97206959,175.14973269,-61.49476615,-60.37793931,-8.16059273,-51.11859030
-174.53107484,-52.09062582,172.19542151,44.71705501,-49.26792622,-3.50736791
17.39141872,-0.13155762,-0.60529982,-1.25645751

>  <HEADER>
                                                                          

>  <MASTER>
        0    0    0    0    0    0    0    0   73    0   73    0          

>  <Name>
Rutin.pdb

>  <RI>
-6.03311e+08

>  <Rbt.Current_Directory>
/root/miniconda3/envs/rdock/share/rxdock-2013.1.1_148c5bd1-0/data/ligands/prepped_ligands/Rutin

>  <Rbt.Executable>
rbdock/0.1.0

>  <Rbt.Library>
librxdock.so/0.1.0

>  <Rbt.Parameter_File>
/root/miniconda3/envs/rdock/share/rxdock-2013.1.1_148c5bd1-0/data/scripts/dock.prm

>  <Rbt.Receptor>
def.prm

>  <SCORE>
-33.1003

>  <SCORE.INTER>
-19.676

>  <SCORE.INTER.CONST>
1

>  <SCORE.INTER.POLAR>
-2.72034

>  <SCORE.INTER.REPUL>
0.275386

>  <SCORE.INTER.ROT>
6

>  <SCORE.INTER.VDW>
-23.2037

>  <SCORE.INTER.norm>
-0.457581

>  <SCORE.INTRA>
-13.6216

>  <SCORE.INTRA.DIHEDRAL>
-31.6065

>  <SCORE.INTRA.DIHEDRAL.0>
50.0277

>  <SCORE.INTRA.POLAR>
0.00836998

>  <SCORE.INTRA.POLAR.0>
-0.00836998

>  <SCORE.INTRA.REPUL>
0

>  <SCORE.INTRA.REPUL.0>
0

>  <SCORE.INTRA.VDW>
2.15317

>  <SCORE.INTRA.VDW.0>
-4.42487

>  <SCORE.INTRA.norm>
-0.316782

>  <SCORE.RESTR>
1.16679

>  <SCORE.RESTR.CAVITY>
1.16679

>  <SCORE.RESTR.norm>
0.0271347

>  <SCORE.SYSTEM>
-0.969488

>  <SCORE.SYSTEM.CONST>
0

>  <SCORE.SYSTEM.DIHEDRAL>
0.230374

>  <SCORE.SYSTEM.POLAR>
-0.012862

>  <SCORE.SYSTEM.VDW>
-1.04094

>  <SCORE.SYSTEM.norm>
-0.0225462

>  <SCORE.heavy>
43

>  <SCORE.norm>
-0.769775

>  <TITLE>
    Rutin_D                                                               

$$$$
Rutin.pdb
  RxDock  02242112123D
librxdock.so/0.1.0
 53 57  0  0  0  0  0  0  0  0999 V2000
  -46.9844   -3.3884   17.1800 O   0  0  0  0  0  0
  -44.6084   -2.3798   18.7201 O   0  0  0  0  0  0
  -42.9179   -2.1593   20.4322 O   0  0  0  0  0  0
  -46.8098    0.0881   18.5082 O   0  0  0  0  0  0
  -49.3095   -0.8451   19.5872 O   0  0  0  0  0  0
  -48.8217   -4.8699   16.8738 O   0  0  0  0  0  0
  -50.5370   -3.0360   18.1824 O   0  0  0  0  0  0
  -41.9062    0.1261   18.9133 O   0  0  0  0  0  0
  -44.0424    1.7960   19.6777 O   0  0  0  0  0  0
  -44.7410    0.5652   22.1925 O   0  0  0  0  0  0
  -51.8373   -4.5453   14.7184 O   0  0  0  0  0  0
  -50.3907   -6.8397   17.7016 O   0  0  0  0  0  0
  -52.7244   -8.1290   17.8190 O   0  0  0  0  0  0
  -55.9598   -6.8315   14.6293 O   0  0  0  0  0  0
  -49.7870    0.4818   15.3275 O   0  0  0  0  0  0
  -47.9699    0.2335   13.2751 O   0  0  0  0  0  0
  -46.5429   -2.0163   17.2723 C   0  0  0  0  0  0
  -47.1780   -1.2992   18.4842 C   0  0  0  0  0  0
  -48.7122   -1.4284   18.4198 C   0  0  0  0  0  0
  -49.1123   -2.9096   18.2986 C   0  0  0  0  0  0
  -43.2579   -0.3499   18.8194 C   0  0  0  0  0  0
  -43.3069   -1.8699   19.0711 C   0  0  0  0  0  0
  -44.1610    0.3741   19.8375 C   0  0  0  0  0  0
  -43.8033   -0.0287   21.2826 C   0  0  0  0  0  0
  -48.4170   -3.5027   17.0588 C   0  0  0  0  0  0
  -45.0114   -1.9771   17.4004 C   0  0  0  0  0  0
  -43.8021   -1.5682   21.4067 C   0  0  0  0  0  0
  -43.3528   -1.9834   22.8168 C   0  0  0  0  0  0
  -50.0871   -5.0623   16.3192 C   0  0  0  0  0  0
  -50.6177   -4.2925   15.3080 C   0  0  0  0  0  0
  -50.8794   -6.1304   16.8231 C   0  0  0  0  0  0
  -52.2114   -6.3423   16.2946 C   0  0  0  0  0  0
  -49.9078   -3.1176   14.7427 C   0  0  0  0  0  0
  -52.6213   -5.5210   15.2431 C   0  0  0  0  0  0
  -53.0860   -7.3257   16.7858 C   0  0  0  0  0  0
  -53.8801   -5.6995   14.6981 C   0  0  0  0  0  0
  -50.1604   -1.8618   15.2804 C   0  0  0  0  0  0
  -48.9828   -3.2230   13.7125 C   0  0  0  0  0  0
  -54.3259   -7.4842   16.2266 C   0  0  0  0  0  0
  -54.7292   -6.6708   15.1779 C   0  0  0  0  0  0
  -49.5229   -0.7449   14.7947 C   0  0  0  0  0  0
  -48.3391   -2.1099   13.2261 C   0  0  0  0  0  0
  -48.6059   -0.8677   13.7604 C   0  0  0  0  0  0
  -47.1633    0.5456   19.3319 H   0  0  0  0  0  0
  -48.9807   -1.2909   20.4278 H   0  0  0  0  0  0
  -50.8921   -2.4832   17.4206 H   0  0  0  0  0  0
  -41.8502    1.1108   18.7156 H   0  0  0  0  0  0
  -44.7078    2.2853   20.2522 H   0  0  0  0  0  0
  -45.6879    0.3277   21.9519 H   0  0  0  0  0  0
  -51.9206   -7.7769   18.3040 H   0  0  0  0  0  0
  -56.4301   -7.6362   15.0097 H   0  0  0  0  0  0
  -49.8713    0.4377   16.3294 H   0  0  0  0  0  0
  -47.0918   -0.0066   12.8489 H   0  0  0  0  0  0
  1 17  1  0  0  0
  1 25  1  0  0  0
  2 22  1  0  0  0
  2 26  1  0  0  0
  3 22  1  0  0  0
  3 27  1  0  0  0
  4 18  1  0  0  0
  4 44  1  0  0  0
  5 19  1  0  0  0
  5 45  1  0  0  0
  6 25  1  0  0  0
  6 29  1  0  0  0
  7 20  1  0  0  0
  7 46  1  0  0  0
  8 21  1  0  0  0
  8 47  1  0  0  0
  9 23  1  0  0  0
  9 48  1  0  0  0
 10 24  1  0  0  0
 10 49  1  0  0  0
 11 30  1  0  0  0
 11 34  1  0  0  0
 12 31  2  0  0  0
 13 35  1  0  0  0
 13 50  1  0  0  0
 14 40  1  0  0  0
 14 51  1  0  0  0
 15 41  1  0  0  0
 15 52  1  0  0  0
 16 43  1  0  0  0
 16 53  1  0  0  0
 17 18  1  0  0  0
 17 26  1  0  0  0
 18 19  1  0  0  0
 19 20  1  0  0  0
 20 25  1  0  0  0
 21 22  1  0  0  0
 23 21  1  0  0  0
 24 23  1  0  0  0
 27 24  1  0  0  0
 27 28  1  0  0  0
 29 30  2  0  0  0
 29 31  1  0  0  0
 30 33  1  0  0  0
 31 32  1  0  0  0
 32 34  2  0  0  0
 32 35  1  0  0  0
 33 37  2  0  0  0
 33 38  1  0  0  0
 34 36  1  0  0  0
 35 39  2  0  0  0
 36 40  2  0  0  0
 37 41  1  0  0  0
 38 42  2  0  0  0
 39 40  1  0  0  0
 41 43  2  0  0  0
 42 43  1  0  0  0
M  END
>  <CHROM.0>
71.97913926,-61.92090517,-60.62001471

>  <CHROM.1>
175.02391857,-156.73392346,-175.75475147,-59.10420502,-159.79828303,39.16782183
54.70962957,177.73614464,172.87786776,54.97903786,15.02531062,173.91427433
40.64051990,155.22088494,-74.35588957,88.24190834,-48.36629128,-2.81173200
17.35997560,-0.00956269,0.66922471,2.25906750

>  <HEADER>
                                                                          

>  <MASTER>
        0    0    0    0    0    0    0    0   73    0   73    0          

>  <Name>
Rutin.pdb

>  <RI>
-6.03311e+08

>  <Rbt.Current_Directory>
/root/miniconda3/envs/rdock/share/rxdock-2013.1.1_148c5bd1-0/data/ligands/prepped_ligands/Rutin

>  <Rbt.Executable>
rbdock/0.1.0

>  <Rbt.Library>
librxdock.so/0.1.0

>  <Rbt.Parameter_File>
/root/miniconda3/envs/rdock/share/rxdock-2013.1.1_148c5bd1-0/data/scripts/dock.prm

>  <Rbt.Receptor>
def.prm

>  <SCORE>
-34.3359

>  <SCORE.INTER>
-18.9378

>  <SCORE.INTER.CONST>
1

>  <SCORE.INTER.POLAR>
-1.48853

>  <SCORE.INTER.REPUL>
0.157446

>  <SCORE.INTER.ROT>
6

>  <SCORE.INTER.VDW>
-26.064

>  <SCORE.INTER.norm>
-0.440413

>  <SCORE.INTRA>
-15.2229

>  <SCORE.INTRA.DIHEDRAL>
-34.3008

>  <SCORE.INTRA.DIHEDRAL.0>
50.0277

>  <SCORE.INTRA.POLAR>
0.00836998

>  <SCORE.INTRA.POLAR.0>
-0.00836998

>  <SCORE.INTRA.REPUL>
0

>  <SCORE.INTRA.REPUL.0>
0

>  <SCORE.INTRA.VDW>
1.89903

>  <SCORE.INTRA.VDW.0>
-4.42487

>  <SCORE.INTRA.norm>
-0.354021

>  <SCORE.RESTR>
0.656189

>  <SCORE.RESTR.CAVITY>
0.656189

>  <SCORE.RESTR.norm>
0.0152602

>  <SCORE.SYSTEM>
-0.831427

>  <SCORE.SYSTEM.CONST>
0

>  <SCORE.SYSTEM.DIHEDRAL>
0.354161

>  <SCORE.SYSTEM.VDW>
-1.00851

>  <SCORE.SYSTEM.norm>
-0.0193355

>  <SCORE.heavy>
43

>  <SCORE.norm>
-0.798509

>  <TITLE>
    Rutin_D                                                               

$$$$
Rutin.pdb
  RxDock  02242112123D
librxdock.so/0.1.0
 53 57  0  0  0  0  0  0  0  0999 V2000
  -49.7219   -3.7193   18.0742 O   0  0  0  0  0  0
  -48.4419   -0.4125   19.1208 O   0  0  0  0  0  0
  -46.5836    0.2631   17.7323 O   0  0  0  0  0  0
  -49.4770   -1.5618   21.1016 O   0  0  0  0  0  0
  -50.1371   -4.1227   22.2376 O   0  0  0  0  0  0
  -50.8043   -5.8071   17.7080 O   0  0  0  0  0  0
  -51.4340   -5.9801   20.4633 O   0  0  0  0  0  0
  -47.0181    2.9715   18.7469 O   0  0  0  0  0  0
  -45.9471    2.3755   21.2834 O   0  0  0  0  0  0
  -44.1676    0.2215   20.5619 O   0  0  0  0  0  0
  -53.5744   -4.9598   15.3727 O   0  0  0  0  0  0
  -51.9934   -8.1382   17.2845 O   0  0  0  0  0  0
  -53.9958   -9.6549   16.3834 O   0  0  0  0  0  0
  -57.0784   -7.5101   13.5159 O   0  0  0  0  0  0
  -52.6084   -0.5983   18.5835 O   0  0  0  0  0  0
  -50.6825    0.4404   16.9137 O   0  0  0  0  0  0
  -49.6876   -2.4959   18.8411 C   0  0  0  0  0  0
  -49.4107   -2.7738   20.3352 C   0  0  0  0  0  0
  -50.4387   -3.7868   20.8752 C   0  0  0  0  0  0
  -50.4407   -5.0534   20.0008 C   0  0  0  0  0  0
  -47.4400    1.7888   19.4439 C   0  0  0  0  0  0
  -47.7765    0.6691   18.4393 C   0  0  0  0  0  0
  -46.3402    1.3059   20.4101 C   0  0  0  0  0  0
  -45.1155    0.7752   19.6373 C   0  0  0  0  0  0
  -50.7270   -4.6405   18.5448 C   0  0  0  0  0  0
  -48.5948   -1.5701   18.2824 C   0  0  0  0  0  0
  -45.5709   -0.2793   18.6047 C   0  0  0  0  0  0
  -44.3724   -0.7448   17.7624 C   0  0  0  0  0  0
  -51.9333   -5.9007   16.8941 C   0  0  0  0  0  0
  -52.5066   -4.8360   16.2348 C   0  0  0  0  0  0
  -52.5271   -7.1817   16.7240 C   0  0  0  0  0  0
  -53.7193   -7.3139   15.9119 C   0  0  0  0  0  0
  -52.0092   -3.4450   16.3812 C   0  0  0  0  0  0
  -54.1821   -6.1683   15.2626 C   0  0  0  0  0  0
  -54.4098   -8.5267   15.7517 C   0  0  0  0  0  0
  -55.3087   -6.2532   14.4643 C   0  0  0  0  0  0
  -52.5229   -2.6555   17.4023 C   0  0  0  0  0  0
  -51.0335   -2.9051   15.5537 C   0  0  0  0  0  0
  -55.5208   -8.5848   14.9532 C   0  0  0  0  0  0
  -55.9759   -7.4465   14.3042 C   0  0  0  0  0  0
  -52.0891   -1.3633   17.5816 C   0  0  0  0  0  0
  -50.5929   -1.6150   15.7315 C   0  0  0  0  0  0
  -51.1178   -0.8377   16.7414 C   0  0  0  0  0  0
  -50.3914   -1.1449   21.0473 H   0  0  0  0  0  0
  -49.1940   -4.4622   22.3305 H   0  0  0  0  0  0
  -52.3562   -5.5806   20.4171 H   0  0  0  0  0  0
  -46.9421    3.7567   19.3710 H   0  0  0  0  0  0
  -45.5524    3.1433   20.7667 H   0  0  0  0  0  0
  -43.8787    0.9014   21.2439 H   0  0  0  0  0  0
  -53.0648   -9.5626   16.7438 H   0  0  0  0  0  0
  -56.8647   -7.2628   12.5638 H   0  0  0  0  0  0
  -53.1778   -1.1455   19.2073 H   0  0  0  0  0  0
  -50.8704    0.7709   17.8442 H   0  0  0  0  0  0
  1 17  1  0  0  0
  1 25  1  0  0  0
  2 22  1  0  0  0
  2 26  1  0  0  0
  3 22  1  0  0  0
  3 27  1  0  0  0
  4 18  1  0  0  0
  4 44  1  0  0  0
  5 19  1  0  0  0
  5 45  1  0  0  0
  6 25  1  0  0  0
  6 29  1  0  0  0
  7 20  1  0  0  0
  7 46  1  0  0  0
  8 21  1  0  0  0
  8 47  1  0  0  0
  9 23  1  0  0  0
  9 48  1  0  0  0
 10 24  1  0  0  0
 10 49  1  0  0  0
 11 30  1  0  0  0
 11 34  1  0  0  0
 12 31  2  0  0  0
 13 35  1  0  0  0
 13 50  1  0  0  0
 14 40  1  0  0  0
 14 51  1  0  0  0
 15 41  1  0  0  0
 15 52  1  0  0  0
 16 43  1  0  0  0
 16 53  1  0  0  0
 17 18  1  0  0  0
 17 26  1  0  0  0
 18 19  1  0  0  0
 19 20  1  0  0  0
 20 25  1  0  0  0
 21 22  1  0  0  0
 23 21  1  0  0  0
 24 23  1  0  0  0
 27 24  1  0  0  0
 27 28  1  0  0  0
 29 30  2  0  0  0
 29 31  1  0  0  0
 30 33  1  0  0  0
 31 32  1  0  0  0
 32 34  2  0  0  0
 32 35  1  0  0  0
 33 37  2  0  0  0
 33 38  1  0  0  0
 34 36  1  0  0  0
 35 39  2  0  0  0
 36 40  2  0  0  0
 37 41  1  0  0  0
 38 42  2  0  0  0
 39 40  1  0  0  0
 41 43  2  0  0  0
 42 43  1  0  0  0
M  END
>  <CHROM.0>
-58.47023020,-66.95039008,173.27960678

>  <CHROM.1>
-47.24901824,-160.94888434,61.24198392,-55.36298416,-107.83875836,39.45665996
60.76510113,170.51044949,-62.37037090,-57.84839356,-14.68920410,61.06329814
9.69241621,21.00074872,-173.58963721,92.09358866,-50.48420129,-3.12041832
17.91605921,-0.41187147,0.77190884,2.58535635

>  <HEADER>
                                                                          

>  <MASTER>
        0    0    0    0    0    0    0    0   73    0   73    0          

>  <Name>
Rutin.pdb

>  <RI>
-6.03311e+08

>  <Rbt.Current_Directory>
/root/miniconda3/envs/rdock/share/rxdock-2013.1.1_148c5bd1-0/data/ligands/prepped_ligands/Rutin

>  <Rbt.Executable>
rbdock/0.1.0

>  <Rbt.Library>
librxdock.so/0.1.0

>  <Rbt.Parameter_File>
/root/miniconda3/envs/rdock/share/rxdock-2013.1.1_148c5bd1-0/data/scripts/dock.prm

>  <Rbt.Receptor>
def.prm

>  <SCORE>
-31.3879

>  <SCORE.INTER>
-17.8616

>  <SCORE.INTER.CONST>
1

>  <SCORE.INTER.POLAR>
-2.69454

>  <SCORE.INTER.REPUL>
0.431163

>  <SCORE.INTER.ROT>
6

>  <SCORE.INTER.VDW>
-22.256

>  <SCORE.INTER.norm>
-0.415387

>  <SCORE.INTRA>
-13.544

>  <SCORE.INTRA.DIHEDRAL>
-28.8417

>  <SCORE.INTRA.DIHEDRAL.0>
50.0277

>  <SCORE.INTRA.POLAR>
-0.0285755

>  <SCORE.INTRA.POLAR.0>
-0.00836998

>  <SCORE.INTRA.REPUL>
0

>  <SCORE.INTRA.REPUL.0>
0

>  <SCORE.INTRA.VDW>
0.974022

>  <SCORE.INTRA.VDW.0>
-4.42487

>  <SCORE.INTRA.norm>
-0.314976

>  <SCORE.RESTR>
1.00073

>  <SCORE.RESTR.CAVITY>
1.00073

>  <SCORE.RESTR.norm>
0.0232727

>  <SCORE.SYSTEM>
-0.982997

>  <SCORE.SYSTEM.CONST>
0

>  <SCORE.SYSTEM.DIHEDRAL>
0.356267

>  <SCORE.SYSTEM.VDW>
-1.16113

>  <SCORE.SYSTEM.norm>
-0.0228604

>  <SCORE.heavy>
43

>  <SCORE.norm>
-0.729951

>  <TITLE>
    Rutin_D                                                               

$$$$
Rutin.pdb
  RxDock  02242112133D
librxdock.so/0.1.0
 53 57  0  0  0  0  0  0  0  0999 V2000
  -47.4712   -1.9600   17.8679 O   0  0  0  0  0  0
  -49.8214   -1.1178   18.5412 O   0  0  0  0  0  0
  -50.7921   -1.6883   20.6790 O   0  0  0  0  0  0
  -46.2138    1.1268   19.5325 O   0  0  0  0  0  0
  -43.9947    0.4027   17.8486 O   0  0  0  0  0  0
  -46.3291   -3.7481   16.7897 O   0  0  0  0  0  0
  -43.8747   -2.3619   17.0593 O   0  0  0  0  0  0
  -53.4020   -1.3722   19.3976 O   0  0  0  0  0  0
  -53.1740   -3.7803   17.9535 O   0  0  0  0  0  0
  -51.3987   -5.2287   19.7078 O   0  0  0  0  0  0
  -49.8216   -4.5277   15.7702 O   0  0  0  0  0  0
  -46.9057   -5.9343   18.1735 O   0  0  0  0  0  0
  -48.5958   -7.7691   19.1220 O   0  0  0  0  0  0
  -52.8972   -7.8169   17.1673 O   0  0  0  0  0  0
  -50.7291   -0.4072   13.2737 O   0  0  0  0  0  0
  -48.3022    0.8090   12.8182 O   0  0  0  0  0  0
  -47.4075   -0.9093   18.8569 C   0  0  0  0  0  0
  -46.3359    0.1427   18.4944 C   0  0  0  0  0  0
  -44.9780   -0.5518   18.2747 C   0  0  0  0  0  0
  -45.1219   -1.6729   17.2301 C   0  0  0  0  0  0
  -52.1960   -1.6635   18.6742 C   0  0  0  0  0  0
  -50.9797   -1.0505   19.3961 C   0  0  0  0  0  0
  -52.0020   -3.1861   18.5318 C   0  0  0  0  0  0
  -51.6955   -3.8371   19.8960 C   0  0  0  0  0  0
  -46.2138   -2.6482   17.7085 C   0  0  0  0  0  0
  -48.7793   -0.2243   18.9676 C   0  0  0  0  0  0
  -50.5169   -3.1001   20.5693 C   0  0  0  0  0  0
  -50.2652   -3.6781   21.9712 C   0  0  0  0  0  0
  -47.5883   -4.3420   16.7034 C   0  0  0  0  0  0
  -48.6107   -3.8836   15.9027 C   0  0  0  0  0  0
  -47.8309   -5.5046   17.4857 C   0  0  0  0  0  0
  -49.1363   -6.1314   17.4472 C   0  0  0  0  0  0
  -48.4930   -2.6491   15.0864 C   0  0  0  0  0  0
  -50.0775   -5.5971   16.5657 C   0  0  0  0  0  0
  -49.4823   -7.2367   18.2422 C   0  0  0  0  0  0
  -51.3319   -6.1748   16.4857 C   0  0  0  0  0  0
  -49.6467   -2.0878   14.5535 C   0  0  0  0  0  0
  -47.2794   -2.0170   14.8511 C   0  0  0  0  0  0
  -50.7299   -7.7921   18.1416 C   0  0  0  0  0  0
  -51.6620   -7.2632   17.2610 C   0  0  0  0  0  0
  -49.5892   -0.9418   13.7963 C   0  0  0  0  0  0
  -47.2168   -0.8683   14.0984 C   0  0  0  0  0  0
  -48.3668   -0.3266   13.5659 C   0  0  0  0  0  0
  -47.0718    1.6387   19.6532 H   0  0  0  0  0  0
  -43.0752   -0.0062   17.8224 H   0  0  0  0  0  0
  -43.3188   -1.9375   16.3361 H   0  0  0  0  0  0
  -53.4744   -0.3914   19.6090 H   0  0  0  0  0  0
  -53.3315   -3.4435   17.0186 H   0  0  0  0  0  0
  -50.4732   -5.3606   19.3375 H   0  0  0  0  0  0
  -48.9948   -7.8808   20.0349 H   0  0  0  0  0  0
  -53.0743   -8.1665   16.2400 H   0  0  0  0  0  0
  -51.5150   -0.5441   13.8872 H   0  0  0  0  0  0
  -47.4730    0.8291   12.2504 H   0  0  0  0  0  0
  1 17  1  0  0  0
  1 25  1  0  0  0
  2 22  1  0  0  0
  2 26  1  0  0  0
  3 22  1  0  0  0
  3 27  1  0  0  0
  4 18  1  0  0  0
  4 44  1  0  0  0
  5 19  1  0  0  0
  5 45  1  0  0  0
  6 25  1  0  0  0
  6 29  1  0  0  0
  7 20  1  0  0  0
  7 46  1  0  0  0
  8 21  1  0  0  0
  8 47  1  0  0  0
  9 23  1  0  0  0
  9 48  1  0  0  0
 10 24  1  0  0  0
 10 49  1  0  0  0
 11 30  1  0  0  0
 11 34  1  0  0  0
 12 31  2  0  0  0
 13 35  1  0  0  0
 13 50  1  0  0  0
 14 40  1  0  0  0
 14 51  1  0  0  0
 15 41  1  0  0  0
 15 52  1  0  0  0
 16 43  1  0  0  0
 16 53  1  0  0  0
 17 18  1  0  0  0
 17 26  1  0  0  0
 18 19  1  0  0  0
 19 20  1  0  0  0
 20 25  1  0  0  0
 21 22  1  0  0  0
 23 21  1  0  0  0
 24 23  1  0  0  0
 27 24  1  0  0  0
 27 28  1  0  0  0
 29 30  2  0  0  0
 29 31  1  0  0  0
 30 33  1  0  0  0
 31 32  1  0  0  0
 32 34  2  0  0  0
 32 35  1  0  0  0
 33 37  2  0  0  0
 33 38  1  0  0  0
 34 36  1  0  0  0
 35 39  2  0  0  0
 36 40  2  0  0  0
 37 41  1  0  0  0
 38 42  2  0  0  0
 39 40  1  0  0  0
 41 43  2  0  0  0
 42 43  1  0  0  0
M  END
>  <CHROM.0>
-90.09571822,-51.24259309,105.25721041

>  <CHROM.1>
-73.91662357,138.40595988,-62.47536602,172.17765962,-28.27094782,84.54929491
-90.14141118,50.54449990,63.58704994,76.16231912,129.75946010,61.38207716
34.10636136,-143.33904593,24.51306839,15.34025721,-49.00952001,-2.98756315
17.49871120,0.27472582,0.81035254,0.83377951

>  <HEADER>
                                                                          

>  <MASTER>
        0    0    0    0    0    0    0    0   73    0   73    0          

>  <Name>
Rutin.pdb

>  <RI>
-6.03311e+08

>  <Rbt.Current_Directory>
/root/miniconda3/envs/rdock/share/rxdock-2013.1.1_148c5bd1-0/data/ligands/prepped_ligands/Rutin

>  <Rbt.Executable>
rbdock/0.1.0

>  <Rbt.Library>
librxdock.so/0.1.0

>  <Rbt.Parameter_File>
/root/miniconda3/envs/rdock/share/rxdock-2013.1.1_148c5bd1-0/data/scripts/dock.prm

>  <Rbt.Receptor>
def.prm

>  <SCORE>
-21.6009

>  <SCORE.INTER>
-15.2828

>  <SCORE.INTER.CONST>
1

>  <SCORE.INTER.POLAR>
-1.61491

>  <SCORE.INTER.REPUL>
0.0167738

>  <SCORE.INTER.ROT>
6

>  <SCORE.INTER.VDW>
-21.276

>  <SCORE.INTER.norm>
-0.355414

>  <SCORE.INTRA>
-9.60474

>  <SCORE.INTRA.DIHEDRAL>
-15.5897

>  <SCORE.INTRA.DIHEDRAL.0>
50.0277

>  <SCORE.INTRA.POLAR>
0.00836998

>  <SCORE.INTRA.POLAR.0>
-0.00836998

>  <SCORE.INTRA.REPUL>
0

>  <SCORE.INTRA.REPUL.0>
0

>  <SCORE.INTRA.VDW>
-1.83834

>  <SCORE.INTRA.VDW.0>
-4.42487

>  <SCORE.INTRA.norm>
-0.223366

>  <SCORE.RESTR>
0.601776

>  <SCORE.RESTR.CAVITY>
0.601776

>  <SCORE.RESTR.norm>
0.0139948

>  <SCORE.SYSTEM>
2.68491

>  <SCORE.SYSTEM.CONST>
0

>  <SCORE.SYSTEM.DIHEDRAL>
5.27389

>  <SCORE.SYSTEM.POLAR>
-0.000264483

>  <SCORE.SYSTEM.VDW>
0.048871

>  <SCORE.SYSTEM.norm>
0.0624399

>  <SCORE.heavy>
43

>  <SCORE.norm>
-0.502346

>  <TITLE>
    Rutin_D                                                               

$$$$
Rutin.pdb
  RxDock  02242112133D
librxdock.so/0.1.0
 53 57  0  0  0  0  0  0  0  0999 V2000
  -48.5123   -2.1747   17.8744 O   0  0  0  0  0  0
  -46.4326   -0.1447   18.7891 O   0  0  0  0  0  0
  -45.0347    0.1087   16.8348 O   0  0  0  0  0  0
  -48.9707    0.0874   20.7990 O   0  0  0  0  0  0
  -49.4834   -2.4998   21.9512 O   0  0  0  0  0  0
  -49.2752   -4.3905   17.4588 O   0  0  0  0  0  0
  -50.2775   -4.5564   20.1019 O   0  0  0  0  0  0
  -43.0907    1.4082   18.5914 O   0  0  0  0  0  0
  -42.3251   -1.0110   19.8151 O   0  0  0  0  0  0
  -42.9399   -2.8490   17.6770 O   0  0  0  0  0  0
  -52.0109   -6.8940   17.1540 O   0  0  0  0  0  0
  -50.9821   -3.2434   15.7862 O   0  0  0  0  0  0
  -53.1050   -3.2696   14.1691 O   0  0  0  0  0  0
  -55.9206   -7.0474   14.5233 O   0  0  0  0  0  0
  -46.4907   -8.1873   18.5824 O   0  0  0  0  0  0
  -47.5036   -9.3453   20.8647 O   0  0  0  0  0  0
  -48.7355   -0.9337   18.5788 C   0  0  0  0  0  0
  -48.6501   -1.1298   20.1087 C   0  0  0  0  0  0
  -49.6194   -2.2454   20.5453 C   0  0  0  0  0  0
  -49.3435   -3.5284   19.7413 C   0  0  0  0  0  0
  -44.0931    0.4932   19.0610 C   0  0  0  0  0  0
  -45.3469    0.5709   18.1676 C   0  0  0  0  0  0
  -43.5505   -0.9497   19.0696 C   0  0  0  0  0  0
  -43.3244   -1.4668   17.6343 C   0  0  0  0  0  0
  -49.4597   -3.1985   18.2413 C   0  0  0  0  0  0
  -47.6896    0.1027   18.1373 C   0  0  0  0  0  0
  -44.6114   -1.2700   16.8032 C   0  0  0  0  0  0
  -44.3678   -1.6924   15.3456 C   0  0  0  0  0  0
  -50.4405   -5.0453   17.0598 C   0  0  0  0  0  0
  -50.8182   -6.2953   17.4974 C   0  0  0  0  0  0
  -51.3023   -4.3746   16.1489 C   0  0  0  0  0  0
  -52.5058   -5.0351   15.6867 C   0  0  0  0  0  0
  -49.9730   -7.1131   18.4033 C   0  0  0  0  0  0
  -52.8008   -6.2849   16.2337 C   0  0  0  0  0  0
  -53.3723   -4.4753   14.7332 C   0  0  0  0  0  0
  -53.9488   -6.9439   15.8320 C   0  0  0  0  0  0
  -48.6294   -7.2814   18.0929 C   0  0  0  0  0  0
  -50.4633   -7.6995   19.5625 C   0  0  0  0  0  0
  -54.5041   -5.1468   14.3547 C   0  0  0  0  0  0
  -54.7985   -6.3862   14.9037 C   0  0  0  0  0  0
  -47.8054   -8.0247   18.9043 C   0  0  0  0  0  0
  -49.6426   -8.4400   20.3798 C   0  0  0  0  0  0
  -48.3137   -8.6090   20.0558 C   0  0  0  0  0  0
  -48.3007    0.8101   20.5953 H   0  0  0  0  0  0
  -50.1990   -3.1267   22.2804 H   0  0  0  0  0  0
  -50.1386   -4.8599   21.0509 H   0  0  0  0  0  0
  -42.8227    1.2030   17.6438 H   0  0  0  0  0  0
  -41.6006   -0.4709   19.3728 H   0  0  0  0  0  0
  -42.9641   -3.2660   16.7625 H   0  0  0  0  0  0
  -52.6203   -2.6596   14.8002 H   0  0  0  0  0  0
  -56.1204   -7.8180   15.1394 H   0  0  0  0  0  0
  -46.0070   -8.7347   19.2746 H   0  0  0  0  0  0
  -47.9508   -9.5561   21.7399 H   0  0  0  0  0  0
  1 17  1  0  0  0
  1 25  1  0  0  0
  2 22  1  0  0  0
  2 26  1  0  0  0
  3 22  1  0  0  0
  3 27  1  0  0  0
  4 18  1  0  0  0
  4 44  1  0  0  0
  5 19  1  0  0  0
  5 45  1  0  0  0
  6 25  1  0  0  0
  6 29  1  0  0  0
  7 20  1  0  0  0
  7 46  1  0  0  0
  8 21  1  0  0  0
  8 47  1  0  0  0
  9 23  1  0  0  0
  9 48  1  0  0  0
 10 24  1  0  0  0
 10 49  1  0  0  0
 11 30  1  0  0  0
 11 34  1  0  0  0
 12 31  2  0  0  0
 13 35  1  0  0  0
 13 50  1  0  0  0
 14 40  1  0  0  0
 14 51  1  0  0  0
 15 41  1  0  0  0
 15 52  1  0  0  0
 16 43  1  0  0  0
 16 53  1  0  0  0
 17 18  1  0  0  0
 17 26  1  0  0  0
 18 19  1  0  0  0
 19 20  1  0  0  0
 20 25  1  0  0  0
 21 22  1  0  0  0
 23 21  1  0  0  0
 24 23  1  0  0  0
 27 24  1  0  0  0
 27 28  1  0  0  0
 29 30  2  0  0  0
 29 31  1  0  0  0
 30 33  1  0  0  0
 31 32  1  0  0  0
 32 34  2  0  0  0
 32 35  1  0  0  0
 33 37  2  0  0  0
 33 38  1  0  0  0
 34 36  1  0  0  0
 35 39  2  0  0  0
 36 40  2  0  0  0
 37 41  1  0  0  0
 38 42  2  0  0  0
 39 40  1  0  0  0
 41 43  2  0  0  0
 42 43  1  0  0  0
M  END
>  <CHROM.0>
-61.18638343,66.83671658,-179.76002223

>  <CHROM.1>
-67.38467447,165.32045009,-63.82401013,171.65377288,-140.86311129,-113.62230855
-66.83255935,-59.39368347,-64.53155190,168.57305103,-31.87939983,13.10500603
178.70778326,169.03068530,-78.35244353,131.75691649,-48.73118715,-3.77941913
17.95754107,0.47763933,-0.46551572,-0.37281640

>  <HEADER>
                                                                          

>  <MASTER>
        0    0    0    0    0    0    0    0   73    0   73    0          

>  <Name>
Rutin.pdb

>  <RI>
-6.03311e+08

>  <Rbt.Current_Directory>
/root/miniconda3/envs/rdock/share/rxdock-2013.1.1_148c5bd1-0/data/ligands/prepped_ligands/Rutin

>  <Rbt.Executable>
rbdock/0.1.0

>  <Rbt.Library>
librxdock.so/0.1.0

>  <Rbt.Parameter_File>
/root/miniconda3/envs/rdock/share/rxdock-2013.1.1_148c5bd1-0/data/scripts/dock.prm

>  <Rbt.Receptor>
def.prm

>  <SCORE>
-28.5272

>  <SCORE.INTER>
-14.6855

>  <SCORE.INTER.CONST>
1

>  <SCORE.INTER.POLAR>
-0.87178

>  <SCORE.INTER.REPUL>
0.0802781

>  <SCORE.INTER.ROT>
6

>  <SCORE.INTER.VDW>
-23.5228

>  <SCORE.INTER.norm>
-0.341523

>  <SCORE.INTRA>
-15.1115

>  <SCORE.INTRA.DIHEDRAL>
-32.384

>  <SCORE.INTRA.DIHEDRAL.0>
50.0277

>  <SCORE.INTRA.POLAR>
-0.100046

>  <SCORE.INTRA.POLAR.0>
-0.00836998

>  <SCORE.INTRA.REPUL>
0

>  <SCORE.INTRA.REPUL.0>
0

>  <SCORE.INTRA.VDW>
1.42067

>  <SCORE.INTRA.VDW.0>
-4.42487

>  <SCORE.INTRA.norm>
-0.35143

>  <SCORE.RESTR>
2.2864

>  <SCORE.RESTR.CAVITY>
2.2864

>  <SCORE.RESTR.norm>
0.0531722

>  <SCORE.SYSTEM>
-1.01662

>  <SCORE.SYSTEM.CONST>
0

>  <SCORE.SYSTEM.DIHEDRAL>
0.232699

>  <SCORE.SYSTEM.POLAR>
-0.00259375

>  <SCORE.SYSTEM.VDW>
-1.12415

>  <SCORE.SYSTEM.norm>
-0.0236424

>  <SCORE.heavy>
43

>  <SCORE.norm>
-0.663423

>  <TITLE>
    Rutin_D                                                               

$$$$
