Rutin.pdb
  RxDock  02242101373D
librxdock.so/0.1.0
 53 57  0  0  0  0  0  0  0  0999 V2000
  -48.1495   -2.9072   16.1328 O   0  0  0  0  0  0
  -48.4981   -5.4799   17.4688 O   0  0  0  0  0  0
  -49.9624   -7.4017   17.4506 O   0  0  0  0  0  0
  -51.1279   -4.3212   14.3980 O   0  0  0  0  0  0
  -50.7281   -1.8440   12.9881 O   0  0  0  0  0  0
  -47.3138   -0.6832   16.2736 O   0  0  0  0  0  0
  -49.2648    0.1829   14.4130 O   0  0  0  0  0  0
  -48.3975   -8.4142   19.7044 O   0  0  0  0  0  0
  -49.5125   -6.5753   21.5240 O   0  0  0  0  0  0
  -52.0558   -6.1101   20.2425 O   0  0  0  0  0  0
  -46.9373   -1.2359   19.9339 O   0  0  0  0  0  0
  -44.6881   -0.6593   16.6376 O   0  0  0  0  0  0
  -42.5020   -0.5686   18.1657 O   0  0  0  0  0  0
  -43.1810   -1.3092   22.7826 O   0  0  0  0  0  0
  -51.6711    1.2760   17.7821 O   0  0  0  0  0  0
  -53.1226   -0.9015   18.6351 O   0  0  0  0  0  0
  -49.3048   -3.7523   15.9406 C   0  0  0  0  0  0
  -49.9252   -3.5504   14.5404 C   0  0  0  0  0  0
  -50.2359   -2.0574   14.3192 C   0  0  0  0  0  0
  -48.9717   -1.2139   14.5628 C   0  0  0  0  0  0
  -48.4778   -7.0225   19.3593 C   0  0  0  0  0  0
  -48.6805   -6.8605   17.8397 C   0  0  0  0  0  0
  -49.6374   -6.3417   20.1130 C   0  0  0  0  0  0
  -51.0029   -6.8525   19.6099 C   0  0  0  0  0  0
  -48.4570   -1.5058   15.9848 C   0  0  0  0  0  0
  -48.8980   -5.2249   16.1118 C   0  0  0  0  0  0
  -51.0716   -6.7206   18.0725 C   0  0  0  0  0  0
  -52.3892   -7.3156   17.5503 C   0  0  0  0  0  0
  -46.7634   -0.8283   17.5471 C   0  0  0  0  0  0
  -47.5001   -1.0159   18.6955 C   0  0  0  0  0  0
  -45.3469   -0.7910   17.6684 C   0  0  0  0  0  0
  -44.7392   -0.9065   18.9782 C   0  0  0  0  0  0
  -48.9846   -1.0157   18.7004 C   0  0  0  0  0  0
  -45.5900   -1.1335   20.0612 C   0  0  0  0  0  0
  -43.3549   -0.8064   19.1950 C   0  0  0  0  0  0
  -45.0500   -1.2657   21.3279 C   0  0  0  0  0  0
  -49.6543    0.1131   18.2450 C   0  0  0  0  0  0
  -49.7346   -2.1063   19.1200 C   0  0  0  0  0  0
  -42.8453   -0.9441   20.4585 C   0  0  0  0  0  0
  -43.6919   -1.1754   21.5327 C   0  0  0  0  0  0
  -51.0282    0.1583   18.2246 C   0  0  0  0  0  0
  -51.1086   -2.0680   19.0975 C   0  0  0  0  0  0
  -51.7620   -0.9386   18.6536 C   0  0  0  0  0  0
  -50.9371   -5.3082   14.4470 H   0  0  0  0  0  0
  -49.9969   -1.9561   12.3053 H   0  0  0  0  0  0
  -49.9675    0.4812   15.0682 H   0  0  0  0  0  0
  -49.2292   -8.9084   19.4289 H   0  0  0  0  0  0
  -48.6451   -6.2102   21.8798 H   0  0  0  0  0  0
  -52.9607   -6.4731   19.9970 H   0  0  0  0  0  0
  -42.9699   -0.5878   17.2791 H   0  0  0  0  0  0
  -42.1757   -1.2570   22.7768 H   0  0  0  0  0  0
  -52.6697    1.1510   17.7825 H   0  0  0  0  0  0
  -53.4733   -0.0544   19.0471 H   0  0  0  0  0  0
  1 17  1  0  0  0
  1 25  1  0  0  0
  2 22  1  0  0  0
  2 26  1  0  0  0
  3 22  1  0  0  0
  3 27  1  0  0  0
  4 18  1  0  0  0
  4 44  1  0  0  0
  5 19  1  0  0  0
  5 45  1  0  0  0
  6 25  1  0  0  0
  6 29  1  0  0  0
  7 20  1  0  0  0
  7 46  1  0  0  0
  8 21  1  0  0  0
  8 47  1  0  0  0
  9 23  1  0  0  0
  9 48  1  0  0  0
 10 24  1  0  0  0
 10 49  1  0  0  0
 11 30  1  0  0  0
 11 34  1  0  0  0
 12 31  2  0  0  0
 13 35  1  0  0  0
 13 50  1  0  0  0
 14 40  1  0  0  0
 14 51  1  0  0  0
 15 41  1  0  0  0
 15 52  1  0  0  0
 16 43  1  0  0  0
 16 53  1  0  0  0
 17 18  1  0  0  0
 17 26  1  0  0  0
 18 19  1  0  0  0
 19 20  1  0  0  0
 20 25  1  0  0  0
 21 22  1  0  0  0
 23 21  1  0  0  0
 24 23  1  0  0  0
 27 24  1  0  0  0
 27 28  1  0  0  0
 29 30  2  0  0  0
 29 31  1  0  0  0
 30 33  1  0  0  0
 31 32  1  0  0  0
 32 34  2  0  0  0
 32 35  1  0  0  0
 33 37  2  0  0  0
 33 38  1  0  0  0
 34 36  1  0  0  0
 35 39  2  0  0  0
 36 40  2  0  0  0
 37 41  1  0  0  0
 38 42  2  0  0  0
 39 40  1  0  0  0
 41 43  2  0  0  0
 42 43  1  0  0  0
M  END
>  <CHROM.0>
-43.54730814,66.98005184,-66.54931130

>  <CHROM.1>
-46.24831566,154.17658412,-64.29129081,-71.12016393,-58.35822107,-38.27737644
60.11279310,-58.77360511,59.80396236,-174.98671113,-6.59966904,177.75883949
177.32003173,-47.92362815,65.88969319,122.12370586,-48.46982998,-2.85703628
18.00676141,2.76081805,0.57413477,2.57992983

>  <HEADER>
                                                                          

>  <MASTER>
        0    0    0    0    0    0    0    0   73    0   73    0          

>  <Name>
Rutin.pdb

>  <RI>
-1.15318e+09

>  <Rbt.Current_Directory>
/root/miniconda3/envs/rdock/share/rxdock-2013.1.1_148c5bd1-0/data/ligands/prepped_ligands/Rutin

>  <Rbt.Executable>
rbdock/0.1.0

>  <Rbt.Library>
librxdock.so/0.1.0

>  <Rbt.Parameter_File>
/root/miniconda3/envs/rdock/share/rxdock-2013.1.1_148c5bd1-0/data/scripts/dock.prm

>  <Rbt.Receptor>
def.prm

>  <SCORE>
-32.5501

>  <SCORE.INTER>
-15.2572

>  <SCORE.INTER.CONST>
1

>  <SCORE.INTER.POLAR>
-1.50692

>  <SCORE.INTER.REPUL>
0.0061365

>  <SCORE.INTER.ROT>
6

>  <SCORE.INTER.VDW>
-21.5643

>  <SCORE.INTER.norm>
-0.354817

>  <SCORE.INTRA>
-17.3914

>  <SCORE.INTRA.DIHEDRAL>
-37.1408

>  <SCORE.INTRA.DIHEDRAL.0>
50.0277

>  <SCORE.INTRA.POLAR>
0.00836998

>  <SCORE.INTRA.POLAR.0>
-0.00836998

>  <SCORE.INTRA.REPUL>
0

>  <SCORE.INTRA.REPUL.0>
0

>  <SCORE.INTRA.VDW>
1.15051

>  <SCORE.INTRA.VDW.0>
-4.42487

>  <SCORE.INTRA.norm>
-0.404451

>  <SCORE.RESTR>
0.637525

>  <SCORE.RESTR.CAVITY>
0.637525

>  <SCORE.RESTR.norm>
0.0148262

>  <SCORE.SYSTEM>
-0.539097

>  <SCORE.SYSTEM.CONST>
0

>  <SCORE.SYSTEM.DIHEDRAL>
0.964863

>  <SCORE.SYSTEM.VDW>
-1.02153

>  <SCORE.SYSTEM.norm>
-0.0125371

>  <SCORE.heavy>
43

>  <SCORE.norm>
-0.75698

>  <TITLE>
    Rutin_D                                                               

$$$$
Rutin.pdb
  RxDock  02242101373D
librxdock.so/0.1.0
 53 57  0  0  0  0  0  0  0  0999 V2000
  -47.0504   -2.5162   17.2084 O   0  0  0  0  0  0
  -44.3779   -0.4994   18.3122 O   0  0  0  0  0  0
  -43.5458   -1.1050   20.4982 O   0  0  0  0  0  0
  -43.4658   -1.8677   16.4273 O   0  0  0  0  0  0
  -44.6040   -2.2011   13.8048 O   0  0  0  0  0  0
  -48.7815   -3.5423   15.9377 O   0  0  0  0  0  0
  -47.0651   -3.6878   13.6903 O   0  0  0  0  0  0
  -41.3285    0.7322   19.9865 O   0  0  0  0  0  0
  -42.9239    3.0263   20.3445 O   0  0  0  0  0  0
  -44.9310    1.9468   22.1146 O   0  0  0  0  0  0
  -51.0340   -4.6441   18.6868 O   0  0  0  0  0  0
  -48.2799   -6.1368   16.1484 O   0  0  0  0  0  0
  -48.4395   -8.4946   17.3884 O   0  0  0  0  0  0
  -51.6109   -8.7780   20.8794 O   0  0  0  0  0  0
  -49.1204    0.8219   17.3637 O   0  0  0  0  0  0
  -51.6834    1.6177   17.9749 O   0  0  0  0  0  0
  -45.6303   -2.4120   17.4500 C   0  0  0  0  0  0
  -44.8847   -1.8733   16.2089 C   0  0  0  0  0  0
  -45.2181   -2.7447   14.9826 C   0  0  0  0  0  0
  -46.7434   -2.8331   14.7973 C   0  0  0  0  0  0
  -42.6030    0.8291   19.3316 C   0  0  0  0  0  0
  -43.2387   -0.5683   19.1923 C   0  0  0  0  0  0
  -43.5506    1.7542   20.1205 C   0  0  0  0  0  0
  -43.9550    1.1181   21.4661 C   0  0  0  0  0  0
  -47.3617   -3.3812   16.0971 C   0  0  0  0  0  0
  -45.3796   -1.4757   18.6431 C   0  0  0  0  0  0
  -44.5029   -0.3054   21.2231 C   0  0  0  0  0  0
  -44.8188   -0.9852   22.5650 C   0  0  0  0  0  0
  -49.4196   -4.3217   16.9028 C   0  0  0  0  0  0
  -50.3562   -3.8444   17.7924 C   0  0  0  0  0  0
  -49.0901   -5.7037   16.9668 C   0  0  0  0  0  0
  -49.7081   -6.5389   17.9761 C   0  0  0  0  0  0
  -50.7379   -2.4112   17.8572 C   0  0  0  0  0  0
  -50.6722   -5.9477   18.7941 C   0  0  0  0  0  0
  -49.3851   -7.8942   18.1557 C   0  0  0  0  0  0
  -51.2989   -6.7133   19.7610 C   0  0  0  0  0  0
  -49.7730   -1.4496   17.5847 C   0  0  0  0  0  0
  -52.0266   -1.9898   18.1568 C   0  0  0  0  0  0
  -50.0224   -8.6310   19.1181 C   0  0  0  0  0  0
  -50.9843   -8.0431   19.9263 C   0  0  0  0  0  0
  -50.0801   -0.1102   17.6260 C   0  0  0  0  0  0
  -52.3401   -0.6518   18.1950 C   0  0  0  0  0  0
  -51.3717    0.2934   17.9333 C   0  0  0  0  0  0
  -43.1174   -2.7981   16.5883 H   0  0  0  0  0  0
  -44.9506   -1.2774   13.6047 H   0  0  0  0  0  0
  -48.0568   -3.7114   13.5229 H   0  0  0  0  0  0
  -40.6600    0.2427   19.4162 H   0  0  0  0  0  0
  -42.0767    2.9277   20.8781 H   0  0  0  0  0  0
  -45.3119    1.4976   22.9295 H   0  0  0  0  0  0
  -48.8019   -8.7722   16.4957 H   0  0  0  0  0  0
  -51.4335   -8.4138   21.8009 H   0  0  0  0  0  0
  -48.9086    1.3719   18.1794 H   0  0  0  0  0  0
  -52.4081    1.8043   18.6460 H   0  0  0  0  0  0
  1 17  1  0  0  0
  1 25  1  0  0  0
  2 22  1  0  0  0
  2 26  1  0  0  0
  3 22  1  0  0  0
  3 27  1  0  0  0
  4 18  1  0  0  0
  4 44  1  0  0  0
  5 19  1  0  0  0
  5 45  1  0  0  0
  6 25  1  0  0  0
  6 29  1  0  0  0
  7 20  1  0  0  0
  7 46  1  0  0  0
  8 21  1  0  0  0
  8 47  1  0  0  0
  9 23  1  0  0  0
  9 48  1  0  0  0
 10 24  1  0  0  0
 10 49  1  0  0  0
 11 30  1  0  0  0
 11 34  1  0  0  0
 12 31  2  0  0  0
 13 35  1  0  0  0
 13 50  1  0  0  0
 14 40  1  0  0  0
 14 51  1  0  0  0
 15 41  1  0  0  0
 15 52  1  0  0  0
 16 43  1  0  0  0
 16 53  1  0  0  0
 17 18  1  0  0  0
 17 26  1  0  0  0
 18 19  1  0  0  0
 19 20  1  0  0  0
 20 25  1  0  0  0
 21 22  1  0  0  0
 23 21  1  0  0  0
 24 23  1  0  0  0
 27 24  1  0  0  0
 27 28  1  0  0  0
 29 30  2  0  0  0
 29 31  1  0  0  0
 30 33  1  0  0  0
 31 32  1  0  0  0
 32 34  2  0  0  0
 32 35  1  0  0  0
 33 37  2  0  0  0
 33 38  1  0  0  0
 34 36  1  0  0  0
 35 39  2  0  0  0
 36 40  2  0  0  0
 37 41  1  0  0  0
 38 42  2  0  0  0
 39 40  1  0  0  0
 41 43  2  0  0  0
 42 43  1  0  0  0
M  END
>  <CHROM.0>
-58.21126696,-172.19834255,-57.87451581

>  <CHROM.1>
-26.28517148,-120.62555068,61.67399552,-61.86766402,-71.95059966,115.04087233
-176.60084583,66.80306540,-60.58194557,171.90555687,-81.16456205,-61.59740168
-113.89416717,-148.90722578,-130.97172299,147.46196704,-47.38975566,-2.52469442
18.17547960,-0.78999336,-0.17769787,-2.74985059

>  <HEADER>
                                                                          

>  <MASTER>
        0    0    0    0    0    0    0    0   73    0   73    0          

>  <Name>
Rutin.pdb

>  <RI>
-1.15318e+09

>  <Rbt.Current_Directory>
/root/miniconda3/envs/rdock/share/rxdock-2013.1.1_148c5bd1-0/data/ligands/prepped_ligands/Rutin

>  <Rbt.Executable>
rbdock/0.1.0

>  <Rbt.Library>
librxdock.so/0.1.0

>  <Rbt.Parameter_File>
/root/miniconda3/envs/rdock/share/rxdock-2013.1.1_148c5bd1-0/data/scripts/dock.prm

>  <Rbt.Receptor>
def.prm

>  <SCORE>
-3.65805

>  <SCORE.INTER>
-1.07125

>  <SCORE.INTER.CONST>
1

>  <SCORE.INTER.POLAR>
-1.13845

>  <SCORE.INTER.REPUL>
0.106555

>  <SCORE.INTER.ROT>
6

>  <SCORE.INTER.VDW>
-9.1333

>  <SCORE.INTER.norm>
-0.0249127

>  <SCORE.INTRA>
-1.67173

>  <SCORE.INTRA.DIHEDRAL>
-13.1923

>  <SCORE.INTRA.DIHEDRAL.0>
50.0277

>  <SCORE.INTRA.POLAR>
0.00836998

>  <SCORE.INTRA.POLAR.0>
-0.00836998

>  <SCORE.INTRA.REPUL>
0

>  <SCORE.INTRA.REPUL.0>
0

>  <SCORE.INTRA.VDW>
4.89598

>  <SCORE.INTRA.VDW.0>
-4.42487

>  <SCORE.INTRA.norm>
-0.0388775

>  <SCORE.RESTR>
0.0157882

>  <SCORE.RESTR.CAVITY>
0.0157882

>  <SCORE.RESTR.norm>
0.000367167

>  <SCORE.SYSTEM>
-0.930862

>  <SCORE.SYSTEM.CONST>
0

>  <SCORE.SYSTEM.DIHEDRAL>
0.312382

>  <SCORE.SYSTEM.POLAR>
-0.00587742

>  <SCORE.SYSTEM.VDW>
-1.06707

>  <SCORE.SYSTEM.norm>
-0.021648

>  <SCORE.heavy>
43

>  <SCORE.norm>
-0.085071

>  <TITLE>
    Rutin_D                                                               

$$$$
Rutin.pdb
  RxDock  02242101373D
librxdock.so/0.1.0
 53 57  0  0  0  0  0  0  0  0999 V2000
  -49.3080   -1.8259   16.9475 O   0  0  0  0  0  0
  -50.5282   -5.2621   16.7866 O   0  0  0  0  0  0
  -50.8616   -6.0320   19.0524 O   0  0  0  0  0  0
  -49.8049   -4.6463   14.5644 O   0  0  0  0  0  0
  -47.6514   -3.1875   13.3321 O   0  0  0  0  0  0
  -48.2856    0.3063   16.6775 O   0  0  0  0  0  0
  -47.4327   -0.4163   14.0758 O   0  0  0  0  0  0
  -51.7789   -8.5540   17.8900 O   0  0  0  0  0  0
  -49.1815   -9.3524   17.1472 O   0  0  0  0  0  0
  -47.6499   -7.9097   19.1220 O   0  0  0  0  0  0
  -47.2450   -0.8554   20.0557 O   0  0  0  0  0  0
  -45.6607    0.6765   16.6793 O   0  0  0  0  0  0
  -43.2829    0.8240   17.8820 O   0  0  0  0  0  0
  -43.0933   -0.8659   22.2904 O   0  0  0  0  0  0
  -51.6095   -3.4107   20.4535 O   0  0  0  0  0  0
  -53.4942   -1.5023   19.8353 O   0  0  0  0  0  0
  -49.9886   -2.9276   16.3079 C   0  0  0  0  0  0
  -49.0856   -3.6181   15.2618 C   0  0  0  0  0  0
  -48.5640   -2.5747   14.2549 C   0  0  0  0  0  0
  -47.8731   -1.4200   15.0020 C   0  0  0  0  0  0
  -50.9148   -7.6350   17.2036 C   0  0  0  0  0  0
  -51.2038   -6.1906   17.6576 C   0  0  0  0  0  0
  -49.4356   -7.9770   17.4710 C   0  0  0  0  0  0
  -49.0581   -7.6998   18.9404 C   0  0  0  0  0  0
  -48.8745   -0.8214   16.0076 C   0  0  0  0  0  0
  -50.4165   -3.9532   17.3701 C   0  0  0  0  0  0
  -49.4613   -6.2569   19.3162 C   0  0  0  0  0  0
  -49.1783   -6.0009   20.8052 C   0  0  0  0  0  0
  -47.5193    0.0141   17.8059 C   0  0  0  0  0  0
  -48.0271   -0.4993   18.9786 C   0  0  0  0  0  0
  -46.1187    0.2516   17.7392 C   0  0  0  0  0  0
  -45.2943   -0.0095   18.9013 C   0  0  0  0  0  0
  -49.4784   -0.7348   19.1845 C   0  0  0  0  0  0
  -45.9193   -0.5670   20.0179 C   0  0  0  0  0  0
  -43.9174    0.2658   18.9447 C   0  0  0  0  0  0
  -45.1661   -0.8469   21.1439 C   0  0  0  0  0  0
  -49.8890   -1.9491   19.7198 C   0  0  0  0  0  0
  -50.4438    0.2175   18.8856 C   0  0  0  0  0  0
  -43.1937   -0.0237   20.0705 C   0  0  0  0  0  0
  -43.8156   -0.5829   21.1771 C   0  0  0  0  0  0
  -51.2214   -2.2112   19.9346 C   0  0  0  0  0  0
  -51.7771   -0.0378   19.1026 C   0  0  0  0  0  0
  -52.1733   -1.2504   19.6243 C   0  0  0  0  0  0
  -49.2416   -5.0585   13.8394 H   0  0  0  0  0  0
  -48.1008   -3.9163   12.8028 H   0  0  0  0  0  0
  -46.7075   -0.7677   13.4736 H   0  0  0  0  0  0
  -52.7461   -8.3724   17.6816 H   0  0  0  0  0  0
  -49.3979   -9.5474   16.1842 H   0  0  0  0  0  0
  -47.3844   -8.8497   18.8838 H   0  0  0  0  0  0
  -43.7231    0.5835   17.0139 H   0  0  0  0  0  0
  -42.1050   -0.7798   22.1196 H   0  0  0  0  0  0
  -51.0427   -4.1645   20.1023 H   0  0  0  0  0  0
  -54.0449   -1.2832   19.0234 H   0  0  0  0  0  0
  1 17  1  0  0  0
  1 25  1  0  0  0
  2 22  1  0  0  0
  2 26  1  0  0  0
  3 22  1  0  0  0
  3 27  1  0  0  0
  4 18  1  0  0  0
  4 44  1  0  0  0
  5 19  1  0  0  0
  5 45  1  0  0  0
  6 25  1  0  0  0
  6 29  1  0  0  0
  7 20  1  0  0  0
  7 46  1  0  0  0
  8 21  1  0  0  0
  8 47  1  0  0  0
  9 23  1  0  0  0
  9 48  1  0  0  0
 10 24  1  0  0  0
 10 49  1  0  0  0
 11 30  1  0  0  0
 11 34  1  0  0  0
 12 31  2  0  0  0
 13 35  1  0  0  0
 13 50  1  0  0  0
 14 40  1  0  0  0
 14 51  1  0  0  0
 15 41  1  0  0  0
 15 52  1  0  0  0
 16 43  1  0  0  0
 16 53  1  0  0  0
 17 18  1  0  0  0
 17 26  1  0  0  0
 18 19  1  0  0  0
 19 20  1  0  0  0
 20 25  1  0  0  0
 21 22  1  0  0  0
 23 21  1  0  0  0
 24 23  1  0  0  0
 27 24  1  0  0  0
 27 28  1  0  0  0
 29 30  2  0  0  0
 29 31  1  0  0  0
 30 33  1  0  0  0
 31 32  1  0  0  0
 32 34  2  0  0  0
 32 35  1  0  0  0
 33 37  2  0  0  0
 33 38  1  0  0  0
 34 36  1  0  0  0
 35 39  2  0  0  0
 36 40  2  0  0  0
 37 41  1  0  0  0
 38 42  2  0  0  0
 39 40  1  0  0  0
 41 43  2  0  0  0
 42 43  1  0  0  0
M  END
>  <CHROM.0>
157.10196330,97.08845806,160.70313372

>  <CHROM.1>
-38.68075451,-167.17619408,176.20264274,61.01057850,37.04889572,-66.69883634
-65.93676907,61.68732512,58.72897939,-59.01422824,-28.87575453,169.71500658
-37.09188810,-130.58521404,-154.07785151,-46.22128204,-48.51453652,-2.83712463
18.06766785,0.53230699,-0.79513690,-0.72507899

>  <HEADER>
                                                                          

>  <MASTER>
        0    0    0    0    0    0    0    0   73    0   73    0          

>  <Name>
Rutin.pdb

>  <RI>
-1.15318e+09

>  <Rbt.Current_Directory>
/root/miniconda3/envs/rdock/share/rxdock-2013.1.1_148c5bd1-0/data/ligands/prepped_ligands/Rutin

>  <Rbt.Executable>
rbdock/0.1.0

>  <Rbt.Library>
librxdock.so/0.1.0

>  <Rbt.Parameter_File>
/root/miniconda3/envs/rdock/share/rxdock-2013.1.1_148c5bd1-0/data/scripts/dock.prm

>  <Rbt.Receptor>
def.prm

>  <SCORE>
-22.8992

>  <SCORE.INTER>
-11.0236

>  <SCORE.INTER.CONST>
1

>  <SCORE.INTER.POLAR>
-1.26913

>  <SCORE.INTER.REPUL>
0.016045

>  <SCORE.INTER.ROT>
6

>  <SCORE.INTER.VDW>
-18.1888

>  <SCORE.INTER.norm>
-0.256363

>  <SCORE.INTRA>
-14.9574

>  <SCORE.INTRA.DIHEDRAL>
-30.0698

>  <SCORE.INTRA.DIHEDRAL.0>
50.0277

>  <SCORE.INTRA.POLAR>
-0.991605

>  <SCORE.INTRA.POLAR.0>
-0.00836998

>  <SCORE.INTRA.REPUL>
0

>  <SCORE.INTRA.REPUL.0>
0

>  <SCORE.INTRA.VDW>
3.44899

>  <SCORE.INTRA.VDW.0>
-4.42487

>  <SCORE.INTRA.norm>
-0.347846

>  <SCORE.RESTR>
0.46178

>  <SCORE.RESTR.CAVITY>
0.46178

>  <SCORE.RESTR.norm>
0.0107391

>  <SCORE.SYSTEM>
2.62001

>  <SCORE.SYSTEM.CONST>
0

>  <SCORE.SYSTEM.DIHEDRAL>
6.92132

>  <SCORE.SYSTEM.VDW>
-0.840652

>  <SCORE.SYSTEM.norm>
0.0609304

>  <SCORE.heavy>
43

>  <SCORE.norm>
-0.532539

>  <TITLE>
    Rutin_D                                                               

$$$$
Rutin.pdb
  RxDock  02242101383D
librxdock.so/0.1.0
 53 57  0  0  0  0  0  0  0  0999 V2000
  -48.9286   -1.9583   16.8342 O   0  0  0  0  0  0
  -46.2088    0.2342   17.3604 O   0  0  0  0  0  0
  -46.3483    0.0315   19.7640 O   0  0  0  0  0  0
  -46.6863   -0.5775   14.1987 O   0  0  0  0  0  0
  -48.4000   -2.3212   12.6799 O   0  0  0  0  0  0
  -50.2777   -3.9182   16.8898 O   0  0  0  0  0  0
  -49.6778   -4.4257   14.1694 O   0  0  0  0  0  0
  -44.0731   -1.7970   19.5812 O   0  0  0  0  0  0
  -42.2348    0.2724   19.0576 O   0  0  0  0  0  0
  -43.5949    2.4646   20.3506 O   0  0  0  0  0  0
  -50.8917   -7.5836   17.0715 O   0  0  0  0  0  0
  -47.9830   -4.8873   17.7965 O   0  0  0  0  0  0
  -46.4595   -6.8290   18.8120 O   0  0  0  0  0  0
  -48.2821  -11.1847   18.6372 O   0  0  0  0  0  0
  -55.7341   -7.4728   16.2752 O   0  0  0  0  0  0
  -56.3105   -5.0045   15.2022 O   0  0  0  0  0  0
  -47.7624   -1.3113   16.2797 C   0  0  0  0  0  0
  -47.8904   -1.1306   14.7509 C   0  0  0  0  0  0
  -48.1886   -2.4901   14.0894 C   0  0  0  0  0  0
  -49.4251   -3.1341   14.7415 C   0  0  0  0  0  0
  -44.3730   -0.8059   18.5861 C   0  0  0  0  0  0
  -45.8926   -0.5546   18.5245 C   0  0  0  0  0  0
  -43.6407    0.5147   18.8964 C   0  0  0  0  0  0
  -44.2124    1.1826   20.1635 C   0  0  0  0  0  0
  -49.1697   -3.2572   16.2554 C   0  0  0  0  0  0
  -47.5735    0.0627   16.9427 C   0  0  0  0  0  0
  -45.7459    1.3142   20.0336 C   0  0  0  0  0  0
  -46.3376    1.8899   21.3302 C   0  0  0  0  0  0
  -50.1184   -5.2832   17.1292 C   0  0  0  0  0  0
  -51.0922   -6.2306   16.9038 C   0  0  0  0  0  0
  -48.8642   -5.7295   17.6293 C   0  0  0  0  0  0
  -48.6709   -7.1352   17.9203 C   0  0  0  0  0  0
  -52.4567   -5.8775   16.4374 C   0  0  0  0  0  0
  -49.7195   -8.0032   17.6116 C   0  0  0  0  0  0
  -47.4911   -7.6486   18.4842 C   0  0  0  0  0  0
  -49.5712   -9.3562   17.8588 C   0  0  0  0  0  0
  -53.4706   -6.8187   16.5637 C   0  0  0  0  0  0
  -52.7690   -4.6359   15.9000 C   0  0  0  0  0  0
  -47.3682   -8.9926   18.7160 C   0  0  0  0  0  0
  -48.4093   -9.8542   18.4034 C   0  0  0  0  0  0
  -54.7514   -6.5360   16.1518 C   0  0  0  0  0  0
  -54.0490   -4.3464   15.4906 C   0  0  0  0  0  0
  -55.0444   -5.2920   15.6111 C   0  0  0  0  0  0
  -46.6823   -0.6409   13.1943 H   0  0  0  0  0  0
  -49.1856   -1.7188   12.4974 H   0  0  0  0  0  0
  -48.8528   -5.0010   14.1871 H   0  0  0  0  0  0
  -44.3480   -1.4896   20.4987 H   0  0  0  0  0  0
  -42.0612   -0.4078   19.7783 H   0  0  0  0  0  0
  -42.6022    2.3786   20.4853 H   0  0  0  0  0  0
  -46.5561   -5.9209   18.3981 H   0  0  0  0  0  0
  -47.4972  -11.3797   19.2365 H   0  0  0  0  0  0
  -55.3522   -8.4025   16.3269 H   0  0  0  0  0  0
  -56.9892   -5.5714   15.6801 H   0  0  0  0  0  0
  1 17  1  0  0  0
  1 25  1  0  0  0
  2 22  1  0  0  0
  2 26  1  0  0  0
  3 22  1  0  0  0
  3 27  1  0  0  0
  4 18  1  0  0  0
  4 44  1  0  0  0
  5 19  1  0  0  0
  5 45  1  0  0  0
  6 25  1  0  0  0
  6 29  1  0  0  0
  7 20  1  0  0  0
  7 46  1  0  0  0
  8 21  1  0  0  0
  8 47  1  0  0  0
  9 23  1  0  0  0
  9 48  1  0  0  0
 10 24  1  0  0  0
 10 49  1  0  0  0
 11 30  1  0  0  0
 11 34  1  0  0  0
 12 31  2  0  0  0
 13 35  1  0  0  0
 13 50  1  0  0  0
 14 40  1  0  0  0
 14 51  1  0  0  0
 15 41  1  0  0  0
 15 52  1  0  0  0
 16 43  1  0  0  0
 16 53  1  0  0  0
 17 18  1  0  0  0
 17 26  1  0  0  0
 18 19  1  0  0  0
 19 20  1  0  0  0
 20 25  1  0  0  0
 21 22  1  0  0  0
 23 21  1  0  0  0
 24 23  1  0  0  0
 27 24  1  0  0  0
 27 28  1  0  0  0
 29 30  2  0  0  0
 29 31  1  0  0  0
 30 33  1  0  0  0
 31 32  1  0  0  0
 32 34  2  0  0  0
 32 35  1  0  0  0
 33 37  2  0  0  0
 33 38  1  0  0  0
 34 36  1  0  0  0
 35 39  2  0  0  0
 36 40  2  0  0  0
 37 41  1  0  0  0
 38 42  2  0  0  0
 39 40  1  0  0  0
 41 43  2  0  0  0
 42 43  1  0  0  0
M  END
>  <CHROM.0>
-170.52651240,66.09323575,62.60416344

>  <CHROM.1>
-79.57303105,-73.56324032,167.70555287,-60.91098226,-139.16821913,-136.90172897
51.87991836,-62.11156023,-56.90691625,-61.74015851,-14.52747007,-165.78313126
-22.51610087,24.43968741,132.07525361,17.28953821,-48.65559540,-3.71937882
17.26038258,0.66061168,-0.50255656,-0.24616277

>  <HEADER>
                                                                          

>  <MASTER>
        0    0    0    0    0    0    0    0   73    0   73    0          

>  <Name>
Rutin.pdb

>  <RI>
-1.15318e+09

>  <Rbt.Current_Directory>
/root/miniconda3/envs/rdock/share/rxdock-2013.1.1_148c5bd1-0/data/ligands/prepped_ligands/Rutin

>  <Rbt.Executable>
rbdock/0.1.0

>  <Rbt.Library>
librxdock.so/0.1.0

>  <Rbt.Parameter_File>
/root/miniconda3/envs/rdock/share/rxdock-2013.1.1_148c5bd1-0/data/scripts/dock.prm

>  <Rbt.Receptor>
def.prm

>  <SCORE>
-28.79

>  <SCORE.INTER>
-17.7261

>  <SCORE.INTER.CONST>
1

>  <SCORE.INTER.POLAR>
-0.940769

>  <SCORE.INTER.REPUL>
0.11051

>  <SCORE.INTER.ROT>
6

>  <SCORE.INTER.VDW>
-26.48

>  <SCORE.INTER.norm>
-0.412234

>  <SCORE.INTRA>
-11.8242

>  <SCORE.INTRA.DIHEDRAL>
-31.2255

>  <SCORE.INTRA.DIHEDRAL.0>
50.0277

>  <SCORE.INTRA.POLAR>
-0.013027

>  <SCORE.INTRA.POLAR.0>
-0.00836998

>  <SCORE.INTRA.REPUL>
0

>  <SCORE.INTRA.REPUL.0>
0

>  <SCORE.INTRA.VDW>
3.83286

>  <SCORE.INTRA.VDW.0>
-4.42487

>  <SCORE.INTRA.norm>
-0.274981

>  <SCORE.RESTR>
1.58901

>  <SCORE.RESTR.CAVITY>
1.58901

>  <SCORE.RESTR.norm>
0.0369538

>  <SCORE.SYSTEM>
-0.82878

>  <SCORE.SYSTEM.CONST>
0

>  <SCORE.SYSTEM.DIHEDRAL>
0.406667

>  <SCORE.SYSTEM.POLAR>
-0.00677941

>  <SCORE.SYSTEM.VDW>
-1.00906

>  <SCORE.SYSTEM.norm>
-0.019274

>  <SCORE.heavy>
43

>  <SCORE.norm>
-0.669535

>  <TITLE>
    Rutin_D                                                               

$$$$
Rutin.pdb
  RxDock  02242101383D
librxdock.so/0.1.0
 53 57  0  0  0  0  0  0  0  0999 V2000
  -48.3922   -1.3052   16.1871 O   0  0  0  0  0  0
  -49.5458   -3.6206   15.7713 O   0  0  0  0  0  0
  -51.1605   -5.1833   14.8835 O   0  0  0  0  0  0
  -45.9938   -3.1702   14.0308 O   0  0  0  0  0  0
  -44.2621   -2.0754   16.0524 O   0  0  0  0  0  0
  -48.0673    0.4684   17.7406 O   0  0  0  0  0  0
  -45.2615    0.2439   17.4317 O   0  0  0  0  0  0
  -50.1187   -7.1123   16.8193 O   0  0  0  0  0  0
  -51.3552   -5.8402   19.0076 O   0  0  0  0  0  0
  -53.5784   -4.5980   17.6506 O   0  0  0  0  0  0
  -49.0768   -1.3069   20.8508 O   0  0  0  0  0  0
  -50.4818   -0.4635   17.1669 O   0  0  0  0  0  0
  -52.6122   -1.9976   17.6465 O   0  0  0  0  0  0
  -52.8573   -3.8938   21.9673 O   0  0  0  0  0  0
  -43.5654   -1.4780   20.1788 O   0  0  0  0  0  0
  -43.1751    0.7909   21.6873 O   0  0  0  0  0  0
  -47.9062   -1.9787   15.0055 C   0  0  0  0  0  0
  -46.5072   -2.5904   15.2396 C   0  0  0  0  0  0
  -45.5409   -1.5013   15.7444 C   0  0  0  0  0  0
  -46.1289   -0.8093   16.9871 C   0  0  0  0  0  0
  -50.0043   -5.6898   16.9804 C   0  0  0  0  0  0
  -49.9210   -5.0019   15.6035 C   0  0  0  0  0  0
  -51.2079   -5.1335   17.7666 C   0  0  0  0  0  0
  -52.5064   -5.2360   16.9407 C   0  0  0  0  0  0
  -47.5151   -0.2459   16.6217 C   0  0  0  0  0  0
  -48.8900   -3.0908   14.6071 C   0  0  0  0  0  0
  -52.2916   -4.5903   15.5542 C   0  0  0  0  0  0
  -53.5478   -4.7721   14.6873 C   0  0  0  0  0  0
  -48.7796   -0.2983   18.6628 C   0  0  0  0  0  0
  -48.3272   -0.6150   19.9245 C   0  0  0  0  0  0
  -50.0632   -0.7767   18.2806 C   0  0  0  0  0  0
  -50.8198   -1.6026   19.1991 C   0  0  0  0  0  0
  -46.9822   -0.2197   20.4127 C   0  0  0  0  0  0
  -50.2721   -1.8206   20.4643 C   0  0  0  0  0  0
  -52.0604   -2.1759   18.8742 C   0  0  0  0  0  0
  -50.9689   -2.5907   21.3782 C   0  0  0  0  0  0
  -45.8911   -1.0134   20.0817 C   0  0  0  0  0  0
  -46.7637    0.9244   21.1687 C   0  0  0  0  0  0
  -52.7315   -2.9317   19.7981 C   0  0  0  0  0  0
  -52.1882   -3.1425   21.0568 C   0  0  0  0  0  0
  -44.6251   -0.6850   20.5052 C   0  0  0  0  0  0
  -45.4992    1.2598   21.5910 C   0  0  0  0  0  0
  -44.4258    0.4588   21.2654 C   0  0  0  0  0  0
  -46.5884   -3.9119   13.7004 H   0  0  0  0  0  0
  -44.3387   -2.7736   16.7734 H   0  0  0  0  0  0
  -45.1718    0.9627   16.7337 H   0  0  0  0  0  0
  -50.1371   -7.5813   17.7089 H   0  0  0  0  0  0
  -50.5496   -5.7156   19.5973 H   0  0  0  0  0  0
  -53.5293   -3.5971   17.5686 H   0  0  0  0  0  0
  -52.0137   -1.4695   17.0397 H   0  0  0  0  0  0
  -52.2636   -4.1535   22.7377 H   0  0  0  0  0  0
  -42.6962   -1.0780   20.4907 H   0  0  0  0  0  0
  -42.7132    0.0100   22.1200 H   0  0  0  0  0  0
  1 17  1  0  0  0
  1 25  1  0  0  0
  2 22  1  0  0  0
  2 26  1  0  0  0
  3 22  1  0  0  0
  3 27  1  0  0  0
  4 18  1  0  0  0
  4 44  1  0  0  0
  5 19  1  0  0  0
  5 45  1  0  0  0
  6 25  1  0  0  0
  6 29  1  0  0  0
  7 20  1  0  0  0
  7 46  1  0  0  0
  8 21  1  0  0  0
  8 47  1  0  0  0
  9 23  1  0  0  0
  9 48  1  0  0  0
 10 24  1  0  0  0
 10 49  1  0  0  0
 11 30  1  0  0  0
 11 34  1  0  0  0
 12 31  2  0  0  0
 13 35  1  0  0  0
 13 50  1  0  0  0
 14 40  1  0  0  0
 14 51  1  0  0  0
 15 41  1  0  0  0
 15 52  1  0  0  0
 16 43  1  0  0  0
 16 53  1  0  0  0
 17 18  1  0  0  0
 17 26  1  0  0  0
 18 19  1  0  0  0
 19 20  1  0  0  0
 20 25  1  0  0  0
 21 22  1  0  0  0
 23 21  1  0  0  0
 24 23  1  0  0  0
 27 24  1  0  0  0
 27 28  1  0  0  0
 29 30  2  0  0  0
 29 31  1  0  0  0
 30 33  1  0  0  0
 31 32  1  0  0  0
 32 34  2  0  0  0
 32 35  1  0  0  0
 33 37  2  0  0  0
 33 38  1  0  0  0
 34 36  1  0  0  0
 35 39  2  0  0  0
 36 40  2  0  0  0
 37 41  1  0  0  0
 38 42  2  0  0  0
 39 40  1  0  0  0
 41 43  2  0  0  0
 42 43  1  0  0  0
M  END
>  <CHROM.0>
-170.34328882,-174.94267947,-179.79445303

>  <CHROM.1>
-82.02187435,-150.92505689,-60.98130238,-60.59683869,36.22709974,107.68792092
62.73745667,177.71824758,62.33020214,77.76076393,2.73350777,-13.93720500
175.39099067,-49.47661343,-30.55336956,97.56230058,-48.86937443,-2.30508861
18.06248849,-0.48198100,-0.43008032,-1.97807119

>  <HEADER>
                                                                          

>  <MASTER>
        0    0    0    0    0    0    0    0   73    0   73    0          

>  <Name>
Rutin.pdb

>  <RI>
-1.15318e+09

>  <Rbt.Current_Directory>
/root/miniconda3/envs/rdock/share/rxdock-2013.1.1_148c5bd1-0/data/ligands/prepped_ligands/Rutin

>  <Rbt.Executable>
rbdock/0.1.0

>  <Rbt.Library>
librxdock.so/0.1.0

>  <Rbt.Parameter_File>
/root/miniconda3/envs/rdock/share/rxdock-2013.1.1_148c5bd1-0/data/scripts/dock.prm

>  <Rbt.Receptor>
def.prm

>  <SCORE>
-29.6603

>  <SCORE.INTER>
-11.5352

>  <SCORE.INTER.CONST>
1

>  <SCORE.INTER.POLAR>
-1.2135

>  <SCORE.INTER.REPUL>
0.0161357

>  <SCORE.INTER.ROT>
6

>  <SCORE.INTER.VDW>
-18.89

>  <SCORE.INTER.norm>
-0.26826

>  <SCORE.INTRA>
-17.6435

>  <SCORE.INTRA.DIHEDRAL>
-25.6444

>  <SCORE.INTRA.DIHEDRAL.0>
50.0277

>  <SCORE.INTRA.POLAR>
-0.99163

>  <SCORE.INTRA.POLAR.0>
-0.00836998

>  <SCORE.INTRA.REPUL>
0.0015603

>  <SCORE.INTRA.REPUL.0>
0

>  <SCORE.INTRA.VDW>
-1.45755

>  <SCORE.INTRA.VDW.0>
-4.42487

>  <SCORE.INTRA.norm>
-0.410314

>  <SCORE.RESTR>
0.427225

>  <SCORE.RESTR.CAVITY>
0.427225

>  <SCORE.RESTR.norm>
0.00993546

>  <SCORE.SYSTEM>
-0.908823

>  <SCORE.SYSTEM.CONST>
0

>  <SCORE.SYSTEM.DIHEDRAL>
0.343998

>  <SCORE.SYSTEM.POLAR>
-0.00250898

>  <SCORE.SYSTEM.VDW>
-1.07229

>  <SCORE.SYSTEM.norm>
-0.0211354

>  <SCORE.heavy>
43

>  <SCORE.norm>
-0.689774

>  <TITLE>
    Rutin_D                                                               

$$$$
Rutin.pdb
  RxDock  02242101383D
librxdock.so/0.1.0
 53 57  0  0  0  0  0  0  0  0999 V2000
  -49.8265   -5.7719   18.8206 O   0  0  0  0  0  0
  -50.9551   -4.7612   21.2199 O   0  0  0  0  0  0
  -50.4265   -3.0618   19.5857 O   0  0  0  0  0  0
  -48.0160   -7.8548   21.3235 O   0  0  0  0  0  0
  -46.7503   -8.6364   18.8595 O   0  0  0  0  0  0
  -50.0939   -6.0096   16.4677 O   0  0  0  0  0  0
  -48.2880   -8.1906   16.4684 O   0  0  0  0  0  0
  -53.1412   -3.4296   18.5616 O   0  0  0  0  0  0
  -54.3267   -2.1003   20.7442 O   0  0  0  0  0  0
  -52.1427   -0.3727   21.5011 O   0  0  0  0  0  0
  -53.3402   -4.4165   15.5910 O   0  0  0  0  0  0
  -51.8285   -8.0080   16.6267 O   0  0  0  0  0  0
  -54.3022   -9.0059   16.7116 O   0  0  0  0  0  0
  -57.7671   -6.0357   15.4877 O   0  0  0  0  0  0
  -50.3201   -0.9116   13.2225 O   0  0  0  0  0  0
  -49.0190    0.1519   15.4025 O   0  0  0  0  0  0
  -49.5871   -6.4352   20.0811 C   0  0  0  0  0  0
  -48.2014   -7.1174   20.1058 C   0  0  0  0  0  0
  -48.0666   -8.0656   18.8986 C   0  0  0  0  0  0
  -48.3570   -7.3029   17.5937 C   0  0  0  0  0  0
  -52.7501   -3.7626   19.9028 C   0  0  0  0  0  0
  -51.2674   -4.1830   19.9372 C   0  0  0  0  0  0
  -52.9720   -2.5644   20.8469 C   0  0  0  0  0  0
  -51.9926   -1.4166   20.5276 C   0  0  0  0  0  0
  -49.7594   -6.6746   17.6978 C   0  0  0  0  0  0
  -49.6731   -5.4113   21.2247 C   0  0  0  0  0  0
  -50.5465   -1.9590   20.5078 C   0  0  0  0  0  0
  -49.5709   -0.8450   20.0956 C   0  0  0  0  0  0
  -51.4537   -5.8012   16.2367 C   0  0  0  0  0  0
  -52.0065   -4.5878   15.8921 C   0  0  0  0  0  0
  -52.3276   -6.9170   16.3540 C   0  0  0  0  0  0
  -53.7504   -6.7338   16.1527 C   0  0  0  0  0  0
  -51.2029   -3.3432   15.7955 C   0  0  0  0  0  0
  -54.1845   -5.4643   15.7678 C   0  0  0  0  0  0
  -54.6897   -7.7646   16.3210 C   0  0  0  0  0  0
  -55.5335   -5.2493   15.5496 C   0  0  0  0  0  0
  -51.1226   -2.6930   14.5706 C   0  0  0  0  0  0
  -50.5452   -2.7873   16.8847 C   0  0  0  0  0  0
  -56.0193   -7.5266   16.0957 C   0  0  0  0  0  0
  -56.4481   -6.2657   15.7078 C   0  0  0  0  0  0
  -50.3958   -1.5341   14.4330 C   0  0  0  0  0  0
  -49.8207   -1.6263   16.7537 C   0  0  0  0  0  0
  -49.7395   -0.9958   15.5308 C   0  0  0  0  0  0
  -48.6241   -8.6559   21.3615 H   0  0  0  0  0  0
  -46.0442   -7.9227   18.7868 H   0  0  0  0  0  0
  -47.6473   -8.9474   16.6386 H   0  0  0  0  0  0
  -54.0341   -2.9666   18.5448 H   0  0  0  0  0  0
  -54.4399   -1.2023   21.1836 H   0  0  0  0  0  0
  -53.0053   -0.4651   22.0094 H   0  0  0  0  0  0
  -53.3217   -9.0450   16.9173 H   0  0  0  0  0  0
  -58.0245   -5.0966   15.7431 H   0  0  0  0  0  0
  -50.2976   -1.5764   12.4673 H   0  0  0  0  0  0
  -49.5723    0.9607   15.6262 H   0  0  0  0  0  0
  1 17  1  0  0  0
  1 25  1  0  0  0
  2 22  1  0  0  0
  2 26  1  0  0  0
  3 22  1  0  0  0
  3 27  1  0  0  0
  4 18  1  0  0  0
  4 44  1  0  0  0
  5 19  1  0  0  0
  5 45  1  0  0  0
  6 25  1  0  0  0
  6 29  1  0  0  0
  7 20  1  0  0  0
  7 46  1  0  0  0
  8 21  1  0  0  0
  8 47  1  0  0  0
  9 23  1  0  0  0
  9 48  1  0  0  0
 10 24  1  0  0  0
 10 49  1  0  0  0
 11 30  1  0  0  0
 11 34  1  0  0  0
 12 31  2  0  0  0
 13 35  1  0  0  0
 13 50  1  0  0  0
 14 40  1  0  0  0
 14 51  1  0  0  0
 15 41  1  0  0  0
 15 52  1  0  0  0
 16 43  1  0  0  0
 16 53  1  0  0  0
 17 18  1  0  0  0
 17 26  1  0  0  0
 18 19  1  0  0  0
 19 20  1  0  0  0
 20 25  1  0  0  0
 21 22  1  0  0  0
 23 21  1  0  0  0
 24 23  1  0  0  0
 27 24  1  0  0  0
 27 28  1  0  0  0
 29 30  2  0  0  0
 29 31  1  0  0  0
 30 33  1  0  0  0
 31 32  1  0  0  0
 32 34  2  0  0  0
 32 35  1  0  0  0
 33 37  2  0  0  0
 33 38  1  0  0  0
 34 36  1  0  0  0
 35 39  2  0  0  0
 36 40  2  0  0  0
 37 41  1  0  0  0
 38 42  2  0  0  0
 39 40  1  0  0  0
 41 43  2  0  0  0
 42 43  1  0  0  0
M  END
>  <CHROM.0>
-86.35505720,-66.22921876,89.31994202

>  <CHROM.1>
-67.89628049,-53.65322802,68.49869618,-59.45598508,-78.28084700,129.08347656
-29.04142505,-167.66686159,-167.02138083,-16.68860708,4.34271865,-33.21846089
-35.59406117,93.11916817,57.48444860,-60.87712335,-51.41320918,-4.72535182
17.78557831,-0.33084601,0.60380749,-3.06551837

>  <HEADER>
                                                                          

>  <MASTER>
        0    0    0    0    0    0    0    0   73    0   73    0          

>  <Name>
Rutin.pdb

>  <RI>
-1.15318e+09

>  <Rbt.Current_Directory>
/root/miniconda3/envs/rdock/share/rxdock-2013.1.1_148c5bd1-0/data/ligands/prepped_ligands/Rutin

>  <Rbt.Executable>
rbdock/0.1.0

>  <Rbt.Library>
librxdock.so/0.1.0

>  <Rbt.Parameter_File>
/root/miniconda3/envs/rdock/share/rxdock-2013.1.1_148c5bd1-0/data/scripts/dock.prm

>  <Rbt.Receptor>
def.prm

>  <SCORE>
-9.03926

>  <SCORE.INTER>
-7.51683

>  <SCORE.INTER.CONST>
1

>  <SCORE.INTER.POLAR>
-4.699

>  <SCORE.INTER.REPUL>
0.170266

>  <SCORE.INTER.ROT>
6

>  <SCORE.INTER.VDW>
-3.79157

>  <SCORE.INTER.norm>
-0.17481

>  <SCORE.INTRA>
-6.03787

>  <SCORE.INTRA.DIHEDRAL>
-21.7725

>  <SCORE.INTRA.DIHEDRAL.0>
50.0277

>  <SCORE.INTRA.POLAR>
-0.0237806

>  <SCORE.INTRA.POLAR.0>
-0.00836998

>  <SCORE.INTRA.REPUL>
0

>  <SCORE.INTRA.REPUL.0>
0

>  <SCORE.INTRA.VDW>
4.92921

>  <SCORE.INTRA.VDW.0>
-4.42487

>  <SCORE.INTRA.norm>
-0.140416

>  <SCORE.RESTR>
3.31122

>  <SCORE.RESTR.CAVITY>
3.31122

>  <SCORE.RESTR.norm>
0.0770051

>  <SCORE.SYSTEM>
1.20422

>  <SCORE.SYSTEM.CONST>
0

>  <SCORE.SYSTEM.DIHEDRAL>
3.38258

>  <SCORE.SYSTEM.POLAR>
-0.0115312

>  <SCORE.SYSTEM.VDW>
-0.447868

>  <SCORE.SYSTEM.norm>
0.028005

>  <SCORE.heavy>
43

>  <SCORE.norm>
-0.210215

>  <TITLE>
    Rutin_D                                                               

$$$$
Rutin.pdb
  RxDock  02242101383D
librxdock.so/0.1.0
 53 57  0  0  0  0  0  0  0  0999 V2000
  -48.0484   -1.7971   17.6403 O   0  0  0  0  0  0
  -50.3903   -1.1306   18.5917 O   0  0  0  0  0  0
  -50.4455   -1.4521   20.9857 O   0  0  0  0  0  0
  -46.8824    1.4078   19.1403 O   0  0  0  0  0  0
  -44.7535    0.7913   17.3041 O   0  0  0  0  0  0
  -46.8718   -3.5315   16.5126 O   0  0  0  0  0  0
  -44.5048   -1.9781   16.5632 O   0  0  0  0  0  0
  -53.0775   -2.6677   20.6004 O   0  0  0  0  0  0
  -52.0122   -5.0318   19.4995 O   0  0  0  0  0  0
  -49.4130   -5.0193   20.7529 O   0  0  0  0  0  0
  -50.2382   -5.0928   16.2403 O   0  0  0  0  0  0
  -46.7331   -5.5973   18.1681 O   0  0  0  0  0  0
  -47.8135   -7.5907   19.5757 O   0  0  0  0  0  0
  -52.2694   -8.7132   18.4756 O   0  0  0  0  0  0
  -50.0788    0.4967   15.3882 O   0  0  0  0  0  0
  -50.2390    0.1239   12.6658 O   0  0  0  0  0  0
  -47.9817   -0.7199   18.6001 C   0  0  0  0  0  0
  -47.0155    0.3919   18.1347 C   0  0  0  0  0  0
  -45.6339   -0.2158   17.8242 C   0  0  0  0  0  0
  -45.7796   -1.3699   16.8165 C   0  0  0  0  0  0
  -52.0821   -2.5931   19.5679 C   0  0  0  0  0  0
  -51.2052   -1.3403   19.7618 C   0  0  0  0  0  0
  -51.1951   -3.8538   19.5761 C   0  0  0  0  0  0
  -50.3110   -3.9030   20.8389 C   0  0  0  0  0  0
  -46.7625   -2.4036   17.3976 C   0  0  0  0  0  0
  -49.3848   -0.1254   18.8033 C   0  0  0  0  0  0
  -49.5381   -2.5735   20.9830 C   0  0  0  0  0  0
  -48.7278   -2.5733   22.2892 C   0  0  0  0  0  0
  -47.9724   -4.3636   16.7173 C   0  0  0  0  0  0
  -49.1871   -4.2153   16.0854 C   0  0  0  0  0  0
  -47.8294   -5.4440   17.6310 C   0  0  0  0  0  0
  -48.9596   -6.3110   17.8940 C   0  0  0  0  0  0
  -49.4714   -3.0935   15.1557 C   0  0  0  0  0  0
  -50.1256   -6.0833   17.1612 C   0  0  0  0  0  0
  -48.9261   -7.3540   18.8344 C   0  0  0  0  0  0
  -51.2240   -6.8980   17.3696 C   0  0  0  0  0  0
  -49.6446   -1.8186   15.6797 C   0  0  0  0  0  0
  -49.5492   -3.2598   13.7793 C   0  0  0  0  0  0
  -50.0262   -8.1483   19.0195 C   0  0  0  0  0  0
  -51.1821   -7.9239   18.2863 C   0  0  0  0  0  0
  -49.9035   -0.7471   14.8583 C   0  0  0  0  0  0
  -49.8035   -2.1909   12.9530 C   0  0  0  0  0  0
  -49.9842   -0.9325   13.4855 C   0  0  0  0  0  0
  -46.4308    2.2286   18.7727 H   0  0  0  0  0  0
  -44.6483    1.5550   17.9515 H   0  0  0  0  0  0
  -43.8079   -1.2873   16.3414 H   0  0  0  0  0  0
  -52.6560   -2.7465   21.5104 H   0  0  0  0  0  0
  -52.6510   -5.0848   20.2750 H   0  0  0  0  0  0
  -49.9128   -5.8895   20.6911 H   0  0  0  0  0  0
  -47.8684   -8.4635   20.0660 H   0  0  0  0  0  0
  -52.4025   -8.9289   19.4498 H   0  0  0  0  0  0
  -49.5643    0.6074   16.2460 H   0  0  0  0  0  0
  -50.2609    0.9892   13.1768 H   0  0  0  0  0  0
  1 17  1  0  0  0
  1 25  1  0  0  0
  2 22  1  0  0  0
  2 26  1  0  0  0
  3 22  1  0  0  0
  3 27  1  0  0  0
  4 18  1  0  0  0
  4 44  1  0  0  0
  5 19  1  0  0  0
  5 45  1  0  0  0
  6 25  1  0  0  0
  6 29  1  0  0  0
  7 20  1  0  0  0
  7 46  1  0  0  0
  8 21  1  0  0  0
  8 47  1  0  0  0
  9 23  1  0  0  0
  9 48  1  0  0  0
 10 24  1  0  0  0
 10 49  1  0  0  0
 11 30  1  0  0  0
 11 34  1  0  0  0
 12 31  2  0  0  0
 13 35  1  0  0  0
 13 50  1  0  0  0
 14 40  1  0  0  0
 14 51  1  0  0  0
 15 41  1  0  0  0
 15 52  1  0  0  0
 16 43  1  0  0  0
 16 53  1  0  0  0
 17 18  1  0  0  0
 17 26  1  0  0  0
 18 19  1  0  0  0
 19 20  1  0  0  0
 20 25  1  0  0  0
 21 22  1  0  0  0
 23 21  1  0  0  0
 24 23  1  0  0  0
 27 24  1  0  0  0
 27 28  1  0  0  0
 29 30  2  0  0  0
 29 31  1  0  0  0
 30 33  1  0  0  0
 31 32  1  0  0  0
 32 34  2  0  0  0
 32 35  1  0  0  0
 33 37  2  0  0  0
 33 38  1  0  0  0
 34 36  1  0  0  0
 35 39  2  0  0  0
 36 40  2  0  0  0
 37 41  1  0  0  0
 38 42  2  0  0  0
 39 40  1  0  0  0
 41 43  2  0  0  0
 42 43  1  0  0  0
M  END
>  <CHROM.0>
-12.06364539,-58.03174195,61.68297661

>  <CHROM.1>
-45.89343340,120.11314925,-167.02149685,58.17233919,-40.39797536,91.38557565
-49.84263269,-61.68798562,-59.58833701,-60.64260316,-168.76465865,-140.00234659
28.92511902,5.36775693,29.59859120,108.31155037,-49.12483795,-3.12309519
17.82472795,-0.21443351,1.15394108,1.38507213

>  <HEADER>
                                                                          

>  <MASTER>
        0    0    0    0    0    0    0    0   73    0   73    0          

>  <Name>
Rutin.pdb

>  <RI>
-1.15318e+09

>  <Rbt.Current_Directory>
/root/miniconda3/envs/rdock/share/rxdock-2013.1.1_148c5bd1-0/data/ligands/prepped_ligands/Rutin

>  <Rbt.Executable>
rbdock/0.1.0

>  <Rbt.Library>
librxdock.so/0.1.0

>  <Rbt.Parameter_File>
/root/miniconda3/envs/rdock/share/rxdock-2013.1.1_148c5bd1-0/data/scripts/dock.prm

>  <Rbt.Receptor>
def.prm

>  <SCORE>
-22.6066

>  <SCORE.INTER>
-10.572

>  <SCORE.INTER.CONST>
1

>  <SCORE.INTER.POLAR>
-1.33524

>  <SCORE.INTER.REPUL>
0.173548

>  <SCORE.INTER.ROT>
6

>  <SCORE.INTER.VDW>
-18.2999

>  <SCORE.INTER.norm>
-0.24586

>  <SCORE.INTRA>
-14.1981

>  <SCORE.INTRA.DIHEDRAL>
-23.5083

>  <SCORE.INTRA.DIHEDRAL.0>
50.0277

>  <SCORE.INTRA.POLAR>
-0.088768

>  <SCORE.INTRA.POLAR.0>
-0.00836998

>  <SCORE.INTRA.REPUL>
0

>  <SCORE.INTRA.REPUL.0>
0

>  <SCORE.INTRA.VDW>
-2.14217

>  <SCORE.INTRA.VDW.0>
-4.42487

>  <SCORE.INTRA.norm>
-0.330189

>  <SCORE.RESTR>
0.961834

>  <SCORE.RESTR.CAVITY>
0.961834

>  <SCORE.RESTR.norm>
0.0223682

>  <SCORE.SYSTEM>
1.2017

>  <SCORE.SYSTEM.CONST>
0

>  <SCORE.SYSTEM.DIHEDRAL>
3.26911

>  <SCORE.SYSTEM.POLAR>
-0.00489581

>  <SCORE.SYSTEM.VDW>
-0.416214

>  <SCORE.SYSTEM.norm>
0.0279465

>  <SCORE.heavy>
43

>  <SCORE.norm>
-0.525734

>  <TITLE>
    Rutin_D                                                               

$$$$
Rutin.pdb
  RxDock  02242101383D
librxdock.so/0.1.0
 53 57  0  0  0  0  0  0  0  0999 V2000
  -48.6617   -0.6580   16.1588 O   0  0  0  0  0  0
  -50.8047   -3.4415   15.8380 O   0  0  0  0  0  0
  -52.8114   -3.4303   17.1837 O   0  0  0  0  0  0
  -49.3191   -3.4902   13.8293 O   0  0  0  0  0  0
  -46.4467   -3.3170   13.7729 O   0  0  0  0  0  0
  -46.7781    0.7753   16.4079 O   0  0  0  0  0  0
  -45.3329   -0.7737   14.5290 O   0  0  0  0  0  0
  -53.5932   -5.8572   15.7511 O   0  0  0  0  0  0
  -51.7248   -7.4667   17.1132 O   0  0  0  0  0  0
  -51.4930   -5.9656   19.5668 O   0  0  0  0  0  0
  -46.9792   -0.2981   19.9649 O   0  0  0  0  0  0
  -44.3805   -0.2511   16.8826 O   0  0  0  0  0  0
  -42.4721   -1.1821   18.4992 O   0  0  0  0  0  0
  -43.8067   -2.1336   22.9308 O   0  0  0  0  0  0
  -52.0889   -0.4235   18.4544 O   0  0  0  0  0  0
  -52.5427    2.2896   18.5512 O   0  0  0  0  0  0
  -49.4232   -1.5071   15.2727 C   0  0  0  0  0  0
  -48.5852   -2.7096   14.7847 C   0  0  0  0  0  0
  -47.2751   -2.2067   14.1480 C   0  0  0  0  0  0
  -46.5271   -1.2912   15.1335 C   0  0  0  0  0  0
  -52.2313   -5.4206   15.8827 C   0  0  0  0  0  0
  -52.1703   -3.8829   15.9705 C   0  0  0  0  0  0
  -51.5813   -6.0384   17.1365 C   0  0  0  0  0  0
  -52.2039   -5.4640   18.4254 C   0  0  0  0  0  0
  -47.4667   -0.1401   15.5390 C   0  0  0  0  0  0
  -50.6754   -2.0195   16.0027 C   0  0  0  0  0  0
  -52.1656   -3.9207   18.3768 C   0  0  0  0  0  0
  -52.8703   -3.3363   19.6115 C   0  0  0  0  0  0
  -46.4434    0.2843   17.6700 C   0  0  0  0  0  0
  -47.3005    0.2622   18.7477 C   0  0  0  0  0  0
  -45.1338   -0.2383   17.8552 C   0  0  0  0  0  0
  -44.7386   -0.7282   19.1598 C   0  0  0  0  0  0
  -48.6707    0.8307   18.6897 C   0  0  0  0  0  0
  -45.7096   -0.7353   20.1624 C   0  0  0  0  0  0
  -43.4441   -1.1920   19.4472 C   0  0  0  0  0  0
  -45.3792   -1.2096   21.4192 C   0  0  0  0  0  0
  -49.7513   -0.0377   18.6002 C   0  0  0  0  0  0
  -48.9207    2.1954   18.7441 C   0  0  0  0  0  0
  -43.1434   -1.6594   20.6987 C   0  0  0  0  0  0
  -44.1113   -1.6709   21.6921 C   0  0  0  0  0  0
  -51.0391    0.4409   18.5500 C   0  0  0  0  0  0
  -50.2067    2.6792   18.6988 C   0  0  0  0  0  0
  -51.2703    1.8083   18.5992 C   0  0  0  0  0  0
  -48.8139   -4.3217   13.5718 H   0  0  0  0  0  0
  -46.9571   -3.9827   13.2163 H   0  0  0  0  0  0
  -44.6645   -1.5053   14.3557 H   0  0  0  0  0  0
  -53.9831   -5.5790   14.8666 H   0  0  0  0  0  0
  -52.6939   -7.7371   17.1224 H   0  0  0  0  0  0
  -51.9930   -5.7850   20.4202 H   0  0  0  0  0  0
  -41.8160   -1.9294   18.6272 H   0  0  0  0  0  0
  -42.8115   -2.2137   23.0592 H   0  0  0  0  0  0
  -52.4448   -0.6724   19.3623 H   0  0  0  0  0  0
  -53.2189    1.5476   18.6024 H   0  0  0  0  0  0
  1 17  1  0  0  0
  1 25  1  0  0  0
  2 22  1  0  0  0
  2 26  1  0  0  0
  3 22  1  0  0  0
  3 27  1  0  0  0
  4 18  1  0  0  0
  4 44  1  0  0  0
  5 19  1  0  0  0
  5 45  1  0  0  0
  6 25  1  0  0  0
  6 29  1  0  0  0
  7 20  1  0  0  0
  7 46  1  0  0  0
  8 21  1  0  0  0
  8 47  1  0  0  0
  9 23  1  0  0  0
  9 48  1  0  0  0
 10 24  1  0  0  0
 10 49  1  0  0  0
 11 30  1  0  0  0
 11 34  1  0  0  0
 12 31  2  0  0  0
 13 35  1  0  0  0
 13 50  1  0  0  0
 14 40  1  0  0  0
 14 51  1  0  0  0
 15 41  1  0  0  0
 15 52  1  0  0  0
 16 43  1  0  0  0
 16 53  1  0  0  0
 17 18  1  0  0  0
 17 26  1  0  0  0
 18 19  1  0  0  0
 19 20  1  0  0  0
 20 25  1  0  0  0
 21 22  1  0  0  0
 23 21  1  0  0  0
 24 23  1  0  0  0
 27 24  1  0  0  0
 27 28  1  0  0  0
 29 30  2  0  0  0
 29 31  1  0  0  0
 30 33  1  0  0  0
 31 32  1  0  0  0
 32 34  2  0  0  0
 32 35  1  0  0  0
 33 37  2  0  0  0
 33 38  1  0  0  0
 34 36  1  0  0  0
 35 39  2  0  0  0
 36 40  2  0  0  0
 37 41  1  0  0  0
 38 42  2  0  0  0
 39 40  1  0  0  0
 41 43  2  0  0  0
 42 43  1  0  0  0
M  END
>  <CHROM.0>
-47.42059801,62.39077161,173.74880606

>  <CHROM.1>
-52.35602717,-154.88649446,-174.69002934,51.48392679,55.29738554,-83.62960409
-66.59412926,67.35263229,-61.63319543,-166.99663466,-149.15288781,-165.41408326
92.00574162,7.47146911,-131.28823283,-74.74040719,-48.61573456,-1.78651056
17.62309373,-0.52372085,-0.09655058,-2.44676175

>  <HEADER>
                                                                          

>  <MASTER>
        0    0    0    0    0    0    0    0   73    0   73    0          

>  <Name>
Rutin.pdb

>  <RI>
-1.15318e+09

>  <Rbt.Current_Directory>
/root/miniconda3/envs/rdock/share/rxdock-2013.1.1_148c5bd1-0/data/ligands/prepped_ligands/Rutin

>  <Rbt.Executable>
rbdock/0.1.0

>  <Rbt.Library>
librxdock.so/0.1.0

>  <Rbt.Parameter_File>
/root/miniconda3/envs/rdock/share/rxdock-2013.1.1_148c5bd1-0/data/scripts/dock.prm

>  <Rbt.Receptor>
def.prm

>  <SCORE>
-26.3373

>  <SCORE.INTER>
-17.3789

>  <SCORE.INTER.CONST>
1

>  <SCORE.INTER.POLAR>
-1.77973

>  <SCORE.INTER.REPUL>
0

>  <SCORE.INTER.ROT>
6

>  <SCORE.INTER.VDW>
-22.7279

>  <SCORE.INTER.norm>
-0.404161

>  <SCORE.INTRA>
-10.3604

>  <SCORE.INTRA.DIHEDRAL>
-24.5307

>  <SCORE.INTRA.DIHEDRAL.0>
50.0277

>  <SCORE.INTRA.POLAR>
0.00836998

>  <SCORE.INTRA.POLAR.0>
-0.00836998

>  <SCORE.INTRA.REPUL>
0

>  <SCORE.INTRA.REPUL.0>
0

>  <SCORE.INTRA.VDW>
1.8765

>  <SCORE.INTRA.VDW.0>
-4.42487

>  <SCORE.INTRA.norm>
-0.240939

>  <SCORE.RESTR>
2.15348

>  <SCORE.RESTR.CAVITY>
2.15348

>  <SCORE.RESTR.norm>
0.050081

>  <SCORE.SYSTEM>
-0.751442

>  <SCORE.SYSTEM.CONST>
0

>  <SCORE.SYSTEM.DIHEDRAL>
0.496808

>  <SCORE.SYSTEM.VDW>
-0.999845

>  <SCORE.SYSTEM.norm>
-0.0174754

>  <SCORE.heavy>
43

>  <SCORE.norm>
-0.612495

>  <TITLE>
    Rutin_D                                                               

$$$$
Rutin.pdb
  RxDock  02242101393D
librxdock.so/0.1.0
 53 57  0  0  0  0  0  0  0  0999 V2000
  -49.5658   -5.3605   18.3321 O   0  0  0  0  0  0
  -47.6095   -3.3027   17.5965 O   0  0  0  0  0  0
  -45.6108   -2.3747   16.6055 O   0  0  0  0  0  0
  -46.4134   -7.3080   17.9443 O   0  0  0  0  0  0
  -48.3237   -9.3696   18.5641 O   0  0  0  0  0  0
  -51.6101   -5.8717   19.4384 O   0  0  0  0  0  0
  -50.6941   -8.5025   19.9461 O   0  0  0  0  0  0
  -47.2827   -0.1495   15.7073 O   0  0  0  0  0  0
  -47.4866    0.9612   18.2882 O   0  0  0  0  0  0
  -45.0306   -0.0289   19.4350 O   0  0  0  0  0  0
  -53.2102   -4.5211   16.3627 O   0  0  0  0  0  0
  -52.5341   -8.0362   18.2183 O   0  0  0  0  0  0
  -54.0103   -9.2753   16.3724 O   0  0  0  0  0  0
  -55.6810   -6.5468   12.8955 O   0  0  0  0  0  0
  -50.7399   -0.1647   16.8688 O   0  0  0  0  0  0
  -51.0526    0.4598   19.5312 O   0  0  0  0  0  0
  -48.1422   -5.5936   18.2587 C   0  0  0  0  0  0
  -47.8283   -7.0670   17.9171 C   0  0  0  0  0  0
  -48.5330   -7.9962   18.9244 C   0  0  0  0  0  0
  -50.0384   -7.6795   18.9704 C   0  0  0  0  0  0
  -47.6156   -0.9879   16.8248 C   0  0  0  0  0  0
  -47.0553   -2.4080   16.6119 C   0  0  0  0  0  0
  -47.0524   -0.3985   18.1332 C   0  0  0  0  0  0
  -45.5119   -0.4691   18.1565 C   0  0  0  0  0  0
  -50.2130   -6.1895   19.3191 C   0  0  0  0  0  0
  -47.5266   -4.6783   17.1879 C   0  0  0  0  0  0
  -45.0543   -1.9129   17.8537 C   0  0  0  0  0  0
  -43.5203   -1.9752   17.7788 C   0  0  0  0  0  0
  -52.3184   -5.7744   18.2406 C   0  0  0  0  0  0
  -52.5773   -4.5915   17.5846 C   0  0  0  0  0  0
  -52.7966   -6.9767   17.6505 C   0  0  0  0  0  0
  -53.5636   -6.9138   16.4233 C   0  0  0  0  0  0
  -52.1776   -3.2709   18.1326 C   0  0  0  0  0  0
  -53.7252   -5.6594   15.8327 C   0  0  0  0  0  0
  -54.1343   -8.0438   15.8144 C   0  0  0  0  0  0
  -54.4375   -5.5560   14.6513 C   0  0  0  0  0  0
  -51.6461   -2.3219   17.2684 C   0  0  0  0  0  0
  -52.3337   -2.9343   19.4706 C   0  0  0  0  0  0
  -54.8322   -7.9149   14.6433 C   0  0  0  0  0  0
  -54.9869   -6.6683   14.0550 C   0  0  0  0  0  0
  -51.2672   -1.0828   17.7277 C   0  0  0  0  0  0
  -51.9606   -1.6951   19.9343 C   0  0  0  0  0  0
  -51.4244   -0.7655   19.0694 C   0  0  0  0  0  0
  -46.2017   -8.2659   17.7197 H   0  0  0  0  0  0
  -48.6750   -9.5632   17.6407 H   0  0  0  0  0  0
  -50.2492   -8.4281   20.8453 H   0  0  0  0  0  0
  -47.7081   -0.4838   14.8593 H   0  0  0  0  0  0
  -47.1777    1.5335   17.5205 H   0  0  0  0  0  0
  -45.3361   -0.6394   20.1731 H   0  0  0  0  0  0
  -53.1495   -9.3733   16.8771 H   0  0  0  0  0  0
  -56.2302   -7.3693   12.7074 H   0  0  0  0  0  0
  -50.2856    0.5844   17.3639 H   0  0  0  0  0  0
  -51.0339    0.4842   20.5359 H   0  0  0  0  0  0
  1 17  1  0  0  0
  1 25  1  0  0  0
  2 22  1  0  0  0
  2 26  1  0  0  0
  3 22  1  0  0  0
  3 27  1  0  0  0
  4 18  1  0  0  0
  4 44  1  0  0  0
  5 19  1  0  0  0
  5 45  1  0  0  0
  6 25  1  0  0  0
  6 29  1  0  0  0
  7 20  1  0  0  0
  7 46  1  0  0  0
  8 21  1  0  0  0
  8 47  1  0  0  0
  9 23  1  0  0  0
  9 48  1  0  0  0
 10 24  1  0  0  0
 10 49  1  0  0  0
 11 30  1  0  0  0
 11 34  1  0  0  0
 12 31  2  0  0  0
 13 35  1  0  0  0
 13 50  1  0  0  0
 14 40  1  0  0  0
 14 51  1  0  0  0
 15 41  1  0  0  0
 15 52  1  0  0  0
 16 43  1  0  0  0
 16 53  1  0  0  0
 17 18  1  0  0  0
 17 26  1  0  0  0
 18 19  1  0  0  0
 19 20  1  0  0  0
 20 25  1  0  0  0
 21 22  1  0  0  0
 23 21  1  0  0  0
 24 23  1  0  0  0
 27 24  1  0  0  0
 27 28  1  0  0  0
 29 30  2  0  0  0
 29 31  1  0  0  0
 30 33  1  0  0  0
 31 32  1  0  0  0
 32 34  2  0  0  0
 32 35  1  0  0  0
 33 37  2  0  0  0
 33 38  1  0  0  0
 34 36  1  0  0  0
 35 39  2  0  0  0
 36 40  2  0  0  0
 37 41  1  0  0  0
 38 42  2  0  0  0
 39 40  1  0  0  0
 41 43  2  0  0  0
 42 43  1  0  0  0
M  END
>  <CHROM.0>
-154.61090567,58.87618379,173.23358452

>  <CHROM.1>
-77.15275564,-179.36262142,-179.82638715,-59.01802522,48.00600638,-96.66200398
53.64514364,63.13387545,-59.60553683,63.82646891,-31.14781819,-164.40371013
-164.67085414,-167.67019394,67.21390833,-40.87988584,-50.09945423,-4.32525724
17.56364873,-2.42218092,-0.27979863,-0.06164286

>  <HEADER>
                                                                          

>  <MASTER>
        0    0    0    0    0    0    0    0   73    0   73    0          

>  <Name>
Rutin.pdb

>  <RI>
-1.15318e+09

>  <Rbt.Current_Directory>
/root/miniconda3/envs/rdock/share/rxdock-2013.1.1_148c5bd1-0/data/ligands/prepped_ligands/Rutin

>  <Rbt.Executable>
rbdock/0.1.0

>  <Rbt.Library>
librxdock.so/0.1.0

>  <Rbt.Parameter_File>
/root/miniconda3/envs/rdock/share/rxdock-2013.1.1_148c5bd1-0/data/scripts/dock.prm

>  <Rbt.Receptor>
def.prm

>  <SCORE>
-40.1019

>  <SCORE.INTER>
-21.4868

>  <SCORE.INTER.CONST>
1

>  <SCORE.INTER.POLAR>
-1.98744

>  <SCORE.INTER.REPUL>
0.153393

>  <SCORE.INTER.ROT>
6

>  <SCORE.INTER.VDW>
-26.8965

>  <SCORE.INTER.norm>
-0.499693

>  <SCORE.INTRA>
-18.5866

>  <SCORE.INTRA.DIHEDRAL>
-38.3145

>  <SCORE.INTRA.DIHEDRAL.0>
50.0277

>  <SCORE.INTRA.POLAR>
-0.0572507

>  <SCORE.INTRA.POLAR.0>
-0.00836998

>  <SCORE.INTRA.REPUL>
0

>  <SCORE.INTRA.REPUL.0>
0

>  <SCORE.INTRA.VDW>
0.765287

>  <SCORE.INTRA.VDW.0>
-4.42487

>  <SCORE.INTRA.norm>
-0.432247

>  <SCORE.RESTR>
0.00451658

>  <SCORE.RESTR.CAVITY>
0.00451658

>  <SCORE.RESTR.norm>
0.000105037

>  <SCORE.SYSTEM>
-0.0329724

>  <SCORE.SYSTEM.CONST>
0

>  <SCORE.SYSTEM.DIHEDRAL>
1.47949

>  <SCORE.SYSTEM.VDW>
-0.772716

>  <SCORE.SYSTEM.norm>
-0.000766801

>  <SCORE.heavy>
43

>  <SCORE.norm>
-0.932602

>  <TITLE>
    Rutin_D                                                               

$$$$
Rutin.pdb
  RxDock  02242101393D
librxdock.so/0.1.0
 53 57  0  0  0  0  0  0  0  0999 V2000
  -47.0996   -1.3742   17.8219 O   0  0  0  0  0  0
  -44.6839    0.5749   17.9662 O   0  0  0  0  0  0
  -43.6855    1.7214   19.8441 O   0  0  0  0  0  0
  -46.0390   -0.5384   14.3496 O   0  0  0  0  0  0
  -48.1915   -2.3937   13.8929 O   0  0  0  0  0  0
  -48.3138   -3.2239   18.6987 O   0  0  0  0  0  0
  -48.7926   -4.1721   16.0738 O   0  0  0  0  0  0
  -46.3548    1.7517   21.0389 O   0  0  0  0  0  0
  -46.2954   -0.9965   21.6551 O   0  0  0  0  0  0
  -43.4446   -1.3767   21.8910 O   0  0  0  0  0  0
  -51.6474   -4.5599   17.7255 O   0  0  0  0  0  0
  -47.8917   -5.8300   18.4592 O   0  0  0  0  0  0
  -48.7129   -8.3558   18.1983 O   0  0  0  0  0  0
  -53.2530   -8.9374   17.0262 O   0  0  0  0  0  0
  -49.9120    0.9994   17.1847 O   0  0  0  0  0  0
  -52.2261    1.6880   18.5063 O   0  0  0  0  0  0
  -46.2366   -0.8856   16.7719 C   0  0  0  0  0  0
  -46.9386   -0.9326   15.3966 C   0  0  0  0  0  0
  -47.4580   -2.3579   15.1260 C   0  0  0  0  0  0
  -48.3488   -2.8248   16.2910 C   0  0  0  0  0  0
  -45.9451    0.8019   20.0427 C   0  0  0  0  0  0
  -44.8936    1.4303   19.1070 C   0  0  0  0  0  0
  -45.3616   -0.4622   20.7044 C   0  0  0  0  0  0
  -44.0171   -0.1572   21.3957 C   0  0  0  0  0  0
  -47.5352   -2.7304   17.5954 C   0  0  0  0  0  0
  -45.8176    0.5605   17.0827 C   0  0  0  0  0  0
  -43.0675    0.5414   20.3978 C   0  0  0  0  0  0
  -41.7600    0.9370   21.1025 C   0  0  0  0  0  0
  -49.3542   -4.0934   18.3710 C   0  0  0  0  0  0
  -50.6499   -3.6971   18.1246 C   0  0  0  0  0  0
  -49.0568   -5.4807   18.2741 C   0  0  0  0  0  0
  -50.1173   -6.4184   17.9670 C   0  0  0  0  0  0
  -51.0903   -2.2850   18.2509 C   0  0  0  0  0  0
  -51.3811   -5.8904   17.6982 C   0  0  0  0  0  0
  -49.9253   -7.8094   17.9248 C   0  0  0  0  0  0
  -52.4192   -6.7495   17.3851 C   0  0  0  0  0  0
  -50.3162   -1.2889   17.6692 C   0  0  0  0  0  0
  -52.2576   -1.9180   18.9073 C   0  0  0  0  0  0
  -50.9688   -8.6380   17.6090 C   0  0  0  0  0  0
  -52.2226   -8.1110   17.3367 C   0  0  0  0  0  0
  -50.6862    0.0325   17.7540 C   0  0  0  0  0  0
  -52.6346   -0.5986   18.9912 C   0  0  0  0  0  0
  -51.8528    0.3819   18.4193 C   0  0  0  0  0  0
  -45.9861   -1.2402   13.6301 H   0  0  0  0  0  0
  -47.5962   -2.1900   13.1071 H   0  0  0  0  0  0
  -49.3000   -4.2548   15.2091 H   0  0  0  0  0  0
  -47.0023    1.3423   21.6908 H   0  0  0  0  0  0
  -45.9800   -1.8791   22.0211 H   0  0  0  0  0  0
  -44.0497   -1.8225   22.5587 H   0  0  0  0  0  0
  -48.7066   -9.3474   18.0502 H   0  0  0  0  0  0
  -54.0288   -8.4280   16.6365 H   0  0  0  0  0  0
  -49.2912    1.4177   17.8573 H   0  0  0  0  0  0
  -53.1788    1.7787   18.8140 H   0  0  0  0  0  0
  1 17  1  0  0  0
  1 25  1  0  0  0
  2 22  1  0  0  0
  2 26  1  0  0  0
  3 22  1  0  0  0
  3 27  1  0  0  0
  4 18  1  0  0  0
  4 44  1  0  0  0
  5 19  1  0  0  0
  5 45  1  0  0  0
  6 25  1  0  0  0
  6 29  1  0  0  0
  7 20  1  0  0  0
  7 46  1  0  0  0
  8 21  1  0  0  0
  8 47  1  0  0  0
  9 23  1  0  0  0
  9 48  1  0  0  0
 10 24  1  0  0  0
 10 49  1  0  0  0
 11 30  1  0  0  0
 11 34  1  0  0  0
 12 31  2  0  0  0
 13 35  1  0  0  0
 13 50  1  0  0  0
 14 40  1  0  0  0
 14 51  1  0  0  0
 15 41  1  0  0  0
 15 52  1  0  0  0
 16 43  1  0  0  0
 16 53  1  0  0  0
 17 18  1  0  0  0
 17 26  1  0  0  0
 18 19  1  0  0  0
 19 20  1  0  0  0
 20 25  1  0  0  0
 21 22  1  0  0  0
 23 21  1  0  0  0
 24 23  1  0  0  0
 27 24  1  0  0  0
 27 28  1  0  0  0
 29 30  2  0  0  0
 29 31  1  0  0  0
 30 33  1  0  0  0
 31 32  1  0  0  0
 32 34  2  0  0  0
 32 35  1  0  0  0
 33 37  2  0  0  0
 33 38  1  0  0  0
 34 36  1  0  0  0
 35 39  2  0  0  0
 36 40  2  0  0  0
 37 41  1  0  0  0
 38 42  2  0  0  0
 39 40  1  0  0  0
 41 43  2  0  0  0
 42 43  1  0  0  0
M  END
>  <CHROM.0>
163.91169346,65.49983248,-175.44130699

>  <CHROM.1>
-166.17767648,-129.07458939,125.40894011,64.57433672,145.32001801,-92.04278952
-58.15195124,-176.76564986,173.47510466,-60.11040340,-174.95355346,14.13321013
-96.46482106,166.48362619,84.24046049,-131.98416993,-48.25044844,-2.34661288
18.19040490,-0.79619192,0.34563441,3.13179025

>  <HEADER>
                                                                          

>  <MASTER>
        0    0    0    0    0    0    0    0   73    0   73    0          

>  <Name>
Rutin.pdb

>  <RI>
-1.15318e+09

>  <Rbt.Current_Directory>
/root/miniconda3/envs/rdock/share/rxdock-2013.1.1_148c5bd1-0/data/ligands/prepped_ligands/Rutin

>  <Rbt.Executable>
rbdock/0.1.0

>  <Rbt.Library>
librxdock.so/0.1.0

>  <Rbt.Parameter_File>
/root/miniconda3/envs/rdock/share/rxdock-2013.1.1_148c5bd1-0/data/scripts/dock.prm

>  <Rbt.Receptor>
def.prm

>  <SCORE>
-20.0355

>  <SCORE.INTER>
-18.995

>  <SCORE.INTER.CONST>
1

>  <SCORE.INTER.POLAR>
-2.82842

>  <SCORE.INTER.REPUL>
0.0120786

>  <SCORE.INTER.ROT>
6

>  <SCORE.INTER.VDW>
-20.8388

>  <SCORE.INTER.norm>
-0.441745

>  <SCORE.INTRA>
-0.732182

>  <SCORE.INTRA.DIHEDRAL>
-15.812

>  <SCORE.INTRA.DIHEDRAL.0>
50.0277

>  <SCORE.INTRA.POLAR>
0.00462357

>  <SCORE.INTRA.POLAR.0>
-0.00836998

>  <SCORE.INTRA.REPUL>
0

>  <SCORE.INTRA.REPUL.0>
0

>  <SCORE.INTRA.VDW>
7.15811

>  <SCORE.INTRA.VDW.0>
-4.42487

>  <SCORE.INTRA.norm>
-0.0170275

>  <SCORE.RESTR>
0.278631

>  <SCORE.RESTR.CAVITY>
0.278631

>  <SCORE.RESTR.norm>
0.00647979

>  <SCORE.SYSTEM>
-0.586928

>  <SCORE.SYSTEM.CONST>
0

>  <SCORE.SYSTEM.DIHEDRAL>
0.808056

>  <SCORE.SYSTEM.POLAR>
-0.0114846

>  <SCORE.SYSTEM.VDW>
-0.951908

>  <SCORE.SYSTEM.norm>
-0.0136495

>  <SCORE.heavy>
43

>  <SCORE.norm>
-0.465942

>  <TITLE>
    Rutin_D                                                               

$$$$
