Rutin.pdb
  RxDock  02242113183D
librxdock.so/0.1.0
 53 57  0  0  0  0  0  0  0  0999 V2000
  -50.0779   -1.4505   16.6224 O   0  0  0  0  0  0
  -48.7245   -3.3491   15.1284 O   0  0  0  0  0  0
  -49.4814   -5.5873   15.6338 O   0  0  0  0  0  0
  -49.7765   -0.4682   13.0412 O   0  0  0  0  0  0
  -48.8018    1.8777   14.3943 O   0  0  0  0  0  0
  -50.1818   -0.1487   18.6121 O   0  0  0  0  0  0
  -49.6726    2.2020   17.1177 O   0  0  0  0  0  0
  -46.7926   -6.4862   14.9158 O   0  0  0  0  0  0
  -45.6402   -5.4777   17.2803 O   0  0  0  0  0  0
  -47.9398   -5.5819   19.0204 O   0  0  0  0  0  0
  -49.0006   -3.3460   20.1043 O   0  0  0  0  0  0
  -52.4061   -1.2677   19.5217 O   0  0  0  0  0  0
  -53.8051   -3.3175   20.5033 O   0  0  0  0  0  0
  -51.2694   -6.9905   22.0537 O   0  0  0  0  0  0
  -46.2536   -0.2763   15.9133 O   0  0  0  0  0  0
  -44.0189   -0.4164   17.5141 O   0  0  0  0  0  0
  -50.3226   -1.5022   15.1999 C   0  0  0  0  0  0
  -49.4533   -0.4760   14.4399 C   0  0  0  0  0  0
  -49.6715    0.9302   15.0313 C   0  0  0  0  0  0
  -49.4182    0.9092   16.5492 C   0  0  0  0  0  0
  -47.0908   -5.1486   15.3453 C   0  0  0  0  0  0
  -48.5248   -4.7628   14.9318 C   0  0  0  0  0  0
  -46.9398   -5.0224   16.8742 C   0  0  0  0  0  0
  -48.0352   -5.8222   17.6086 C   0  0  0  0  0  0
  -50.3415   -0.1481   17.1832 C   0  0  0  0  0  0
  -50.0187   -2.9157   14.6775 C   0  0  0  0  0  0
  -49.4238   -5.4194   17.0654 C   0  0  0  0  0  0
  -50.5164   -6.2789   17.7212 C   0  0  0  0  0  0
  -50.1578   -1.4025   19.2231 C   0  0  0  0  0  0
  -49.0163   -2.1450   19.4290 C   0  0  0  0  0  0
  -51.3918   -1.9472   19.6737 C   0  0  0  0  0  0
  -51.4118   -3.2605   20.2845 C   0  0  0  0  0  0
  -47.6811   -1.7051   18.9519 C   0  0  0  0  0  0
  -50.1842   -3.8973   20.4744 C   0  0  0  0  0  0
  -52.5939   -3.9021   20.6897 C   0  0  0  0  0  0
  -50.1562   -5.1462   21.0685 C   0  0  0  0  0  0
  -47.5661   -1.1941   17.6652 C   0  0  0  0  0  0
  -46.5436   -1.7613   19.7462 C   0  0  0  0  0  0
  -52.5387   -5.1372   21.2784 C   0  0  0  0  0  0
  -51.3174   -5.7659   21.4714 C   0  0  0  0  0  0
  -46.3520   -0.7682   17.1809 C   0  0  0  0  0  0
  -45.3279   -1.3325   19.2684 C   0  0  0  0  0  0
  -45.2241   -0.8374   17.9863 C   0  0  0  0  0  0
  -50.7489   -0.2559   12.8922 H   0  0  0  0  0  0
  -47.9405    1.9840   14.9044 H   0  0  0  0  0  0
  -49.5237    2.1995   18.1126 H   0  0  0  0  0  0
  -47.3764   -7.1594   15.3825 H   0  0  0  0  0  0
  -44.9122   -5.0145   16.7629 H   0  0  0  0  0  0
  -48.0602   -4.6074   19.2366 H   0  0  0  0  0  0
  -53.8596   -2.8404   19.6231 H   0  0  0  0  0  0
  -50.9430   -6.9335   23.0043 H   0  0  0  0  0  0
  -46.8537   -0.7745   15.2773 H   0  0  0  0  0  0
  -44.1276    0.2260   16.7486 H   0  0  0  0  0  0
  1 17  1  0  0  0
  1 25  1  0  0  0
  2 22  1  0  0  0
  2 26  1  0  0  0
  3 22  1  0  0  0
  3 27  1  0  0  0
  4 18  1  0  0  0
  4 44  1  0  0  0
  5 19  1  0  0  0
  5 45  1  0  0  0
  6 25  1  0  0  0
  6 29  1  0  0  0
  7 20  1  0  0  0
  7 46  1  0  0  0
  8 21  1  0  0  0
  8 47  1  0  0  0
  9 23  1  0  0  0
  9 48  1  0  0  0
 10 24  1  0  0  0
 10 49  1  0  0  0
 11 30  1  0  0  0
 11 34  1  0  0  0
 12 31  2  0  0  0
 13 35  1  0  0  0
 13 50  1  0  0  0
 14 40  1  0  0  0
 14 51  1  0  0  0
 15 41  1  0  0  0
 15 52  1  0  0  0
 16 43  1  0  0  0
 16 53  1  0  0  0
 17 18  1  0  0  0
 17 26  1  0  0  0
 18 19  1  0  0  0
 19 20  1  0  0  0
 20 25  1  0  0  0
 21 22  1  0  0  0
 23 21  1  0  0  0
 24 23  1  0  0  0
 27 24  1  0  0  0
 27 28  1  0  0  0
 29 30  2  0  0  0
 29 31  1  0  0  0
 30 33  1  0  0  0
 31 32  1  0  0  0
 32 34  2  0  0  0
 32 35  1  0  0  0
 33 37  2  0  0  0
 33 38  1  0  0  0
 34 36  1  0  0  0
 35 39  2  0  0  0
 36 40  2  0  0  0
 37 41  1  0  0  0
 38 42  2  0  0  0
 39 40  1  0  0  0
 41 43  2  0  0  0
 42 43  1  0  0  0
M  END
>  <CHROM.0>
-46.45115723,-175.77578106,54.43085215

>  <CHROM.1>
-60.04577047,166.54284792,58.10860611,-92.87769542,-15.99388617,89.52971742
179.18304233,-64.66697923,53.02469007,60.07729049,39.10739335,75.15760315
-37.10752162,21.99122293,-50.05821121,136.21233829,-49.07440529,-2.68957683
17.69826019,1.00475926,0.67895187,-0.38565636

>  <HEADER>
                                                                          

>  <MASTER>
        0    0    0    0    0    0    0    0   73    0   73    0          

>  <Name>
Rutin.pdb

>  <RI>
-1.05846e+09

>  <Rbt.Current_Directory>
/root/miniconda3/envs/rdock/share/rxdock-2013.1.1_148c5bd1-0/data/ligands/prepped_ligands/Rutin

>  <Rbt.Executable>
rbdock/0.1.0

>  <Rbt.Library>
librxdock.so/0.1.0

>  <Rbt.Parameter_File>
/root/miniconda3/envs/rdock/share/rxdock-2013.1.1_148c5bd1-0/data/scripts/dock.prm

>  <Rbt.Receptor>
def.prm

>  <SCORE>
419.808

>  <SCORE.INTER>
434.042

>  <SCORE.INTER.CONST>
1

>  <SCORE.INTER.POLAR>
-1.08272

>  <SCORE.INTER.REPUL>
0.134031

>  <SCORE.INTER.ROT>
6

>  <SCORE.INTER.VDW>
425.653

>  <SCORE.INTER.norm>
10.094

>  <SCORE.INTRA>
-17.9879

>  <SCORE.INTRA.DIHEDRAL>
-22.2361

>  <SCORE.INTRA.DIHEDRAL.0>
50.0277

>  <SCORE.INTRA.POLAR>
-0.978864

>  <SCORE.INTRA.POLAR.0>
-0.00836998

>  <SCORE.INTRA.REPUL>
0

>  <SCORE.INTRA.REPUL.0>
0

>  <SCORE.INTRA.VDW>
-3.54169

>  <SCORE.INTRA.VDW.0>
-4.42487

>  <SCORE.INTRA.norm>
-0.418323

>  <SCORE.RESTR>
4.4829

>  <SCORE.RESTR.CAVITY>
4.4829

>  <SCORE.RESTR.norm>
0.104254

>  <SCORE.SYSTEM>
-0.729105

>  <SCORE.SYSTEM.CONST>
0

>  <SCORE.SYSTEM.DIHEDRAL>
0.593406

>  <SCORE.SYSTEM.VDW>
-1.02581

>  <SCORE.SYSTEM.norm>
-0.0169559

>  <SCORE.heavy>
43

>  <SCORE.norm>
9.76297

>  <TITLE>
    Rutin_D                                                               

$$$$
Rutin.pdb
  RxDock  02242113183D
librxdock.so/0.1.0
 53 57  0  0  0  0  0  0  0  0999 V2000
  -48.8039   -2.1581   16.9724 O   0  0  0  0  0  0
  -46.6867   -0.5159   17.8223 O   0  0  0  0  0  0
  -44.2765   -0.3804   17.7196 O   0  0  0  0  0  0
  -49.7607    0.3295   19.5756 O   0  0  0  0  0  0
  -50.7331   -2.1319   20.7070 O   0  0  0  0  0  0
  -49.6190   -4.3447   16.5043 O   0  0  0  0  0  0
  -51.2272   -4.2593   18.8334 O   0  0  0  0  0  0
  -44.5756    2.4821   18.2395 O   0  0  0  0  0  0
  -45.2408    2.0931   20.9491 O   0  0  0  0  0  0
  -43.8958   -0.4160   21.4208 O   0  0  0  0  0  0
  -51.6772   -7.3076   17.4151 O   0  0  0  0  0  0
  -51.8334   -4.0220   15.0833 O   0  0  0  0  0  0
  -54.1505   -4.8729   14.0686 O   0  0  0  0  0  0
  -55.8544   -8.8823   15.8980 O   0  0  0  0  0  0
  -46.0686   -8.0600   17.6144 O   0  0  0  0  0  0
  -46.1065   -7.8514   20.3587 O   0  0  0  0  0  0
  -49.0888   -0.8588   17.5351 C   0  0  0  0  0  0
  -49.3829   -0.9514   19.0488 C   0  0  0  0  0  0
  -50.5126   -1.9693   19.2982 C   0  0  0  0  0  0
  -50.1565   -3.3209   18.6538 C   0  0  0  0  0  0
  -45.5635    1.5050   18.6025 C   0  0  0  0  0  0
  -45.5339    0.3234   17.6130 C   0  0  0  0  0  0
  -45.3175    0.9894   20.0342 C   0  0  0  0  0  0
  -44.0265    0.1489   20.1079 C   0  0  0  0  0  0
  -49.8887   -3.0910   17.1546 C   0  0  0  0  0  0
  -47.8899    0.0752   17.3036 C   0  0  0  0  0  0
  -44.0625   -0.9530   19.0262 C   0  0  0  0  0  0
  -42.7396   -1.7358   19.0263 C   0  0  0  0  0  0
  -50.6452   -5.2884   16.5485 C   0  0  0  0  0  0
  -50.6218   -6.4264   17.3238 C   0  0  0  0  0  0
  -51.7978   -5.0566   15.7483 C   0  0  0  0  0  0
  -52.8708   -6.0296   15.7430 C   0  0  0  0  0  0
  -49.4505   -6.8019   18.1551 C   0  0  0  0  0  0
  -52.7482   -7.1229   16.6021 C   0  0  0  0  0  0
  -54.0090   -5.9147   14.9277 C   0  0  0  0  0  0
  -53.7574   -8.0682   16.6403 C   0  0  0  0  0  0
  -48.2999   -7.2555   17.5225 C   0  0  0  0  0  0
  -49.4475   -6.6973   19.5397 C   0  0  0  0  0  0
  -54.9954   -6.8626   14.9868 C   0  0  0  0  0  0
  -54.8743   -7.9454   15.8453 C   0  0  0  0  0  0
  -47.1877   -7.6092   18.2491 C   0  0  0  0  0  0
  -48.3365   -7.0453   20.2708 C   0  0  0  0  0  0
  -47.2043   -7.5043   19.6327 C   0  0  0  0  0  0
  -49.9326    0.2808   20.5660 H   0  0  0  0  0  0
  -49.9227   -2.5190   21.1618 H   0  0  0  0  0  0
  -51.4044   -4.4292   19.8090 H   0  0  0  0  0  0
  -43.6510    2.0858   18.2405 H   0  0  0  0  0  0
  -45.0674    1.7779   21.8887 H   0  0  0  0  0  0
  -43.7218    0.2940   22.1111 H   0  0  0  0  0  0
  -54.8547   -5.0500   13.3773 H   0  0  0  0  0  0
  -55.4729   -9.8092   15.9906 H   0  0  0  0  0  0
  -45.4885   -8.6031   18.2320 H   0  0  0  0  0  0
  -45.2578   -7.6746   19.8499 H   0  0  0  0  0  0
  1 17  1  0  0  0
  1 25  1  0  0  0
  2 22  1  0  0  0
  2 26  1  0  0  0
  3 22  1  0  0  0
  3 27  1  0  0  0
  4 18  1  0  0  0
  4 44  1  0  0  0
  5 19  1  0  0  0
  5 45  1  0  0  0
  6 25  1  0  0  0
  6 29  1  0  0  0
  7 20  1  0  0  0
  7 46  1  0  0  0
  8 21  1  0  0  0
  8 47  1  0  0  0
  9 23  1  0  0  0
  9 48  1  0  0  0
 10 24  1  0  0  0
 10 49  1  0  0  0
 11 30  1  0  0  0
 11 34  1  0  0  0
 12 31  2  0  0  0
 13 35  1  0  0  0
 13 50  1  0  0  0
 14 40  1  0  0  0
 14 51  1  0  0  0
 15 41  1  0  0  0
 15 52  1  0  0  0
 16 43  1  0  0  0
 16 53  1  0  0  0
 17 18  1  0  0  0
 17 26  1  0  0  0
 18 19  1  0  0  0
 19 20  1  0  0  0
 20 25  1  0  0  0
 21 22  1  0  0  0
 23 21  1  0  0  0
 24 23  1  0  0  0
 27 24  1  0  0  0
 27 28  1  0  0  0
 29 30  2  0  0  0
 29 31  1  0  0  0
 30 33  1  0  0  0
 31 32  1  0  0  0
 32 34  2  0  0  0
 32 35  1  0  0  0
 33 37  2  0  0  0
 33 38  1  0  0  0
 34 36  1  0  0  0
 35 39  2  0  0  0
 36 40  2  0  0  0
 37 41  1  0  0  0
 38 42  2  0  0  0
 39 40  1  0  0  0
 41 43  2  0  0  0
 42 43  1  0  0  0
M  END
>  <CHROM.0>
56.40979778,-64.04565246,51.92902345

>  <CHROM.1>
-161.39917126,179.40573290,-178.65160509,-63.58147097,-176.05848268,-107.40582454
-60.84867738,-59.39163623,-179.19723483,-67.93333814,163.47790706,-38.90551300
-157.92621751,31.52631774,-54.66518513,108.97866007,-49.00005232,-3.64771203
17.96665227,0.68656968,-0.42121908,-0.06439012

>  <HEADER>
                                                                          

>  <MASTER>
        0    0    0    0    0    0    0    0   73    0   73    0          

>  <Name>
Rutin.pdb

>  <RI>
-1.05846e+09

>  <Rbt.Current_Directory>
/root/miniconda3/envs/rdock/share/rxdock-2013.1.1_148c5bd1-0/data/ligands/prepped_ligands/Rutin

>  <Rbt.Executable>
rbdock/0.1.0

>  <Rbt.Library>
librxdock.so/0.1.0

>  <Rbt.Parameter_File>
/root/miniconda3/envs/rdock/share/rxdock-2013.1.1_148c5bd1-0/data/scripts/dock.prm

>  <Rbt.Receptor>
def.prm

>  <SCORE>
-24.7231

>  <SCORE.INTER>
-9.59244

>  <SCORE.INTER.CONST>
1

>  <SCORE.INTER.POLAR>
-0.00550827

>  <SCORE.INTER.REPUL>
0.0208841

>  <SCORE.INTER.ROT>
6

>  <SCORE.INTER.VDW>
-21.0781

>  <SCORE.INTER.norm>
-0.22308

>  <SCORE.INTRA>
-15.4148

>  <SCORE.INTRA.DIHEDRAL>
-34.7893

>  <SCORE.INTRA.DIHEDRAL.0>
50.0277

>  <SCORE.INTRA.POLAR>
0.00836998

>  <SCORE.INTRA.POLAR.0>
-0.00836998

>  <SCORE.INTRA.REPUL>
0

>  <SCORE.INTRA.REPUL.0>
0

>  <SCORE.INTRA.VDW>
1.95135

>  <SCORE.INTRA.VDW.0>
-4.42487

>  <SCORE.INTRA.norm>
-0.358484

>  <SCORE.RESTR>
1.24757

>  <SCORE.RESTR.CAVITY>
1.24757

>  <SCORE.RESTR.norm>
0.0290134

>  <SCORE.SYSTEM>
-0.963447

>  <SCORE.SYSTEM.CONST>
0

>  <SCORE.SYSTEM.DIHEDRAL>
0.279745

>  <SCORE.SYSTEM.VDW>
-1.10332

>  <SCORE.SYSTEM.norm>
-0.0224058

>  <SCORE.heavy>
43

>  <SCORE.norm>
-0.574957

>  <TITLE>
    Rutin_D                                                               

$$$$
Rutin.pdb
  RxDock  02242113183D
librxdock.so/0.1.0
 53 57  0  0  0  0  0  0  0  0999 V2000
  -47.5592   -3.1395   17.5647 O   0  0  0  0  0  0
  -45.2926   -1.7884   18.8776 O   0  0  0  0  0  0
  -43.3594   -1.6167   20.3168 O   0  0  0  0  0  0
  -47.9614    0.3349   18.8482 O   0  0  0  0  0  0
  -50.1581   -1.0321   20.1090 O   0  0  0  0  0  0
  -49.0965   -4.9490   17.4014 O   0  0  0  0  0  0
  -51.0375   -3.4460   18.8128 O   0  0  0  0  0  0
  -42.6907    0.8285   18.8584 O   0  0  0  0  0  0
  -44.7384    2.3233   20.0867 O   0  0  0  0  0  0
  -44.9787    0.8662   22.5659 O   0  0  0  0  0  0
  -52.2749   -6.8820   17.4811 O   0  0  0  0  0  0
  -50.6321   -3.6905   15.6448 O   0  0  0  0  0  0
  -52.7983   -3.4857   14.0996 O   0  0  0  0  0  0
  -56.2674   -6.5666   14.9931 O   0  0  0  0  0  0
  -48.0210   -6.8857   21.5390 O   0  0  0  0  0  0
  -48.2341   -9.6296   21.4970 O   0  0  0  0  0  0
  -47.3824   -1.7069   17.6141 C   0  0  0  0  0  0
  -48.0590   -1.0973   18.8618 C   0  0  0  0  0  0
  -49.5411   -1.5166   18.9072 C   0  0  0  0  0  0
  -49.6585   -3.0491   18.8269 C   0  0  0  0  0  0
  -44.0211    0.2934   18.9369 C   0  0  0  0  0  0
  -43.9719   -1.2421   19.0629 C   0  0  0  0  0  0
  -44.7763    0.8891   20.1415 C   0  0  0  0  0  0
  -44.1770    0.3934   21.4733 C   0  0  0  0  0  0
  -48.9486   -3.5262   17.5460 C   0  0  0  0  0  0
  -45.8814   -1.3751   17.6332 C   0  0  0  0  0  0
  -44.0980   -1.1491   21.4643 C   0  0  0  0  0  0
  -43.4135   -1.6497   22.7463 C   0  0  0  0  0  0
  -50.3846   -5.4030   17.1174 C   0  0  0  0  0  0
  -50.9736   -6.4944   17.7162 C   0  0  0  0  0  0
  -51.1456   -4.6863   16.1532 C   0  0  0  0  0  0
  -52.4753   -5.1458   15.8081 C   0  0  0  0  0  0
  -50.2575   -7.3516   18.6941 C   0  0  0  0  0  0
  -52.9777   -6.2405   16.5135 C   0  0  0  0  0  0
  -53.2643   -4.5410   14.8156 C   0  0  0  0  0  0
  -54.2497   -6.7024   16.2267 C   0  0  0  0  0  0
  -49.4717   -6.7444   19.6655 C   0  0  0  0  0  0
  -50.3576   -8.7365   18.6938 C   0  0  0  0  0  0
  -54.5217   -5.0155   14.5532 C   0  0  0  0  0  0
  -55.0214   -6.1000   15.2591 C   0  0  0  0  0  0
  -48.7944   -7.4957   20.5966 C   0  0  0  0  0  0
  -49.6860   -9.4924   19.6253 C   0  0  0  0  0  0
  -48.9008   -8.8792   20.5777 C   0  0  0  0  0  0
  -48.3994    0.7385   19.6594 H   0  0  0  0  0  0
  -49.6649   -1.3498   20.9271 H   0  0  0  0  0  0
  -51.5272   -3.0384   18.0343 H   0  0  0  0  0  0
  -42.7043    1.8249   18.7209 H   0  0  0  0  0  0
  -45.2794    2.7321   20.8299 H   0  0  0  0  0  0
  -44.5989    0.5800   23.4517 H   0  0  0  0  0  0
  -53.5127   -3.0760   13.5277 H   0  0  0  0  0  0
  -56.4803   -7.3819   15.5438 H   0  0  0  0  0  0
  -48.1126   -5.8843   21.4987 H   0  0  0  0  0  0
  -47.6991   -9.0539   22.1238 H   0  0  0  0  0  0
  1 17  1  0  0  0
  1 25  1  0  0  0
  2 22  1  0  0  0
  2 26  1  0  0  0
  3 22  1  0  0  0
  3 27  1  0  0  0
  4 18  1  0  0  0
  4 44  1  0  0  0
  5 19  1  0  0  0
  5 45  1  0  0  0
  6 25  1  0  0  0
  6 29  1  0  0  0
  7 20  1  0  0  0
  7 46  1  0  0  0
  8 21  1  0  0  0
  8 47  1  0  0  0
  9 23  1  0  0  0
  9 48  1  0  0  0
 10 24  1  0  0  0
 10 49  1  0  0  0
 11 30  1  0  0  0
 11 34  1  0  0  0
 12 31  2  0  0  0
 13 35  1  0  0  0
 13 50  1  0  0  0
 14 40  1  0  0  0
 14 51  1  0  0  0
 15 41  1  0  0  0
 15 52  1  0  0  0
 16 43  1  0  0  0
 16 53  1  0  0  0
 17 18  1  0  0  0
 17 26  1  0  0  0
 18 19  1  0  0  0
 19 20  1  0  0  0
 20 25  1  0  0  0
 21 22  1  0  0  0
 23 21  1  0  0  0
 24 23  1  0  0  0
 27 24  1  0  0  0
 27 28  1  0  0  0
 29 30  2  0  0  0
 29 31  1  0  0  0
 30 33  1  0  0  0
 31 32  1  0  0  0
 32 34  2  0  0  0
 32 35  1  0  0  0
 33 37  2  0  0  0
 33 38  1  0  0  0
 34 36  1  0  0  0
 35 39  2  0  0  0
 36 40  2  0  0  0
 37 41  1  0  0  0
 38 42  2  0  0  0
 39 40  1  0  0  0
 41 43  2  0  0  0
 42 43  1  0  0  0
M  END
>  <CHROM.0>
-178.85520914,-60.14758173,-178.93130705

>  <CHROM.1>
178.87707042,-167.26231449,-179.92452235,-56.11525180,-168.24662097,-136.39700994
58.75592519,176.63499111,176.10901830,-178.45040004,-171.58809536,-2.79188810
6.00020924,-0.40905351,-68.63073359,-136.50392377,-48.77262472,-3.64796496
18.52697636,0.39925730,-0.62401644,-0.41298030

>  <HEADER>
                                                                          

>  <MASTER>
        0    0    0    0    0    0    0    0   73    0   73    0          

>  <Name>
Rutin.pdb

>  <RI>
-1.05846e+09

>  <Rbt.Current_Directory>
/root/miniconda3/envs/rdock/share/rxdock-2013.1.1_148c5bd1-0/data/ligands/prepped_ligands/Rutin

>  <Rbt.Executable>
rbdock/0.1.0

>  <Rbt.Library>
librxdock.so/0.1.0

>  <Rbt.Parameter_File>
/root/miniconda3/envs/rdock/share/rxdock-2013.1.1_148c5bd1-0/data/scripts/dock.prm

>  <Rbt.Receptor>
def.prm

>  <SCORE>
-29.446

>  <SCORE.INTER>
-14.7074

>  <SCORE.INTER.CONST>
1

>  <SCORE.INTER.POLAR>
-1.55764

>  <SCORE.INTER.REPUL>
0.109586

>  <SCORE.INTER.ROT>
6

>  <SCORE.INTER.VDW>
-21.3594

>  <SCORE.INTER.norm>
-0.342033

>  <SCORE.INTRA>
-16.8337

>  <SCORE.INTRA.DIHEDRAL>
-43.3305

>  <SCORE.INTRA.DIHEDRAL.0>
50.0277

>  <SCORE.INTRA.POLAR>
-0.0990608

>  <SCORE.INTRA.POLAR.0>
-0.00836998

>  <SCORE.INTRA.REPUL>
0

>  <SCORE.INTRA.REPUL.0>
0

>  <SCORE.INTRA.VDW>
5.16834

>  <SCORE.INTRA.VDW.0>
-4.42487

>  <SCORE.INTRA.norm>
-0.391482

>  <SCORE.RESTR>
3.18031

>  <SCORE.RESTR.CAVITY>
3.18031

>  <SCORE.RESTR.norm>
0.0739606

>  <SCORE.SYSTEM>
-1.08516

>  <SCORE.SYSTEM.CONST>
0

>  <SCORE.SYSTEM.DIHEDRAL>
0.00464133

>  <SCORE.SYSTEM.POLAR>
-0.00456735

>  <SCORE.SYSTEM.VDW>
-1.07195

>  <SCORE.SYSTEM.norm>
-0.0252363

>  <SCORE.heavy>
43

>  <SCORE.norm>
-0.684791

>  <TITLE>
    Rutin_D                                                               

$$$$
Rutin.pdb
  RxDock  02242113183D
librxdock.so/0.1.0
 53 57  0  0  0  0  0  0  0  0999 V2000
  -49.2305   -1.6780   17.8858 O   0  0  0  0  0  0
  -47.0403   -0.7449   19.2418 O   0  0  0  0  0  0
  -45.7986   -0.1391   21.2240 O   0  0  0  0  0  0
  -51.0561    0.3471   20.4248 O   0  0  0  0  0  0
  -53.1964   -1.0960   19.1517 O   0  0  0  0  0  0
  -49.9658   -2.7318   15.8825 O   0  0  0  0  0  0
  -52.6473   -2.0609   16.4969 O   0  0  0  0  0  0
  -43.7000   -1.9354   20.2635 O   0  0  0  0  0  0
  -42.8788   -0.1648   18.2321 O   0  0  0  0  0  0
  -43.6917    2.3381   19.4158 O   0  0  0  0  0  0
  -47.6563   -5.3701   17.1278 O   0  0  0  0  0  0
  -51.5903   -4.7264   16.5228 O   0  0  0  0  0  0
  -52.0915   -7.2590   17.1987 O   0  0  0  0  0  0
  -48.3514   -9.8122   18.5471 O   0  0  0  0  0  0
  -43.5730   -2.6392   17.1267 O   0  0  0  0  0  0
  -44.0008   -0.5802   15.3508 O   0  0  0  0  0  0
  -49.4470   -0.6159   18.8403 C   0  0  0  0  0  0
  -50.8096   -0.7661   19.5525 C   0  0  0  0  0  0
  -51.9359   -0.8649   18.5054 C   0  0  0  0  0  0
  -51.6314   -1.9971   17.5084 C   0  0  0  0  0  0
  -44.6765   -1.3286   19.4028 C   0  0  0  0  0  0
  -45.9961   -1.1049   20.1676 C   0  0  0  0  0  0
  -44.1585    0.0168   18.8569 C   0  0  0  0  0  0
  -44.0559    1.0694   19.9794 C   0  0  0  0  0  0
  -50.2548   -1.7292   16.8716 C   0  0  0  0  0  0
  -48.3200   -0.6272   19.8858 C   0  0  0  0  0  0
  -45.4016    1.1577   20.7324 C   0  0  0  0  0  0
  -45.2818    2.1331   21.9142 C   0  0  0  0  0  0
  -49.4643   -3.9401   16.3665 C   0  0  0  0  0  0
  -48.1279   -4.1991   16.5753 C   0  0  0  0  0  0
  -50.3942   -4.9708   16.6756 C   0  0  0  0  0  0
  -49.9097   -6.2506   17.1505 C   0  0  0  0  0  0
  -47.0630   -3.2218   16.2364 C   0  0  0  0  0  0
  -48.5355   -6.3776   17.3598 C   0  0  0  0  0  0
  -50.7528   -7.3443   17.4085 C   0  0  0  0  0  0
  -48.0319   -7.5780   17.8278 C   0  0  0  0  0  0
  -45.8123   -3.3657   16.8237 C   0  0  0  0  0  0
  -47.2569   -2.1809   15.3381 C   0  0  0  0  0  0
  -50.2294   -8.5208   17.8744 C   0  0  0  0  0  0
  -48.8642   -8.6432   18.0871 C   0  0  0  0  0  0
  -44.7927   -2.4894   16.5365 C   0  0  0  0  0  0
  -46.2394   -1.3045   15.0439 C   0  0  0  0  0  0
  -45.0059   -1.4510   15.6410 C   0  0  0  0  0  0
  -50.3834    0.3811   21.1725 H   0  0  0  0  0  0
  -53.2220   -2.0019   19.5900 H   0  0  0  0  0  0
  -52.5659   -2.9010   15.9496 H   0  0  0  0  0  0
  -43.5220   -1.3665   21.0737 H   0  0  0  0  0  0
  -42.8860   -0.9522   17.6057 H   0  0  0  0  0  0
  -42.8368    2.2755   18.8904 H   0  0  0  0  0  0
  -52.3140   -6.6345   16.4465 H   0  0  0  0  0  0
  -47.9716  -10.3674   17.7983 H   0  0  0  0  0  0
  -43.6135   -3.2854   17.8971 H   0  0  0  0  0  0
  -43.1055   -0.9477   15.6227 H   0  0  0  0  0  0
  1 17  1  0  0  0
  1 25  1  0  0  0
  2 22  1  0  0  0
  2 26  1  0  0  0
  3 22  1  0  0  0
  3 27  1  0  0  0
  4 18  1  0  0  0
  4 44  1  0  0  0
  5 19  1  0  0  0
  5 45  1  0  0  0
  6 25  1  0  0  0
  6 29  1  0  0  0
  7 20  1  0  0  0
  7 46  1  0  0  0
  8 21  1  0  0  0
  8 47  1  0  0  0
  9 23  1  0  0  0
  9 48  1  0  0  0
 10 24  1  0  0  0
 10 49  1  0  0  0
 11 30  1  0  0  0
 11 34  1  0  0  0
 12 31  2  0  0  0
 13 35  1  0  0  0
 13 50  1  0  0  0
 14 40  1  0  0  0
 14 51  1  0  0  0
 15 41  1  0  0  0
 15 52  1  0  0  0
 16 43  1  0  0  0
 16 53  1  0  0  0
 17 18  1  0  0  0
 17 26  1  0  0  0
 18 19  1  0  0  0
 19 20  1  0  0  0
 20 25  1  0  0  0
 21 22  1  0  0  0
 23 21  1  0  0  0
 24 23  1  0  0  0
 27 24  1  0  0  0
 27 28  1  0  0  0
 29 30  2  0  0  0
 29 31  1  0  0  0
 30 33  1  0  0  0
 31 32  1  0  0  0
 32 34  2  0  0  0
 32 35  1  0  0  0
 33 37  2  0  0  0
 33 38  1  0  0  0
 34 36  1  0  0  0
 35 39  2  0  0  0
 36 40  2  0  0  0
 37 41  1  0  0  0
 38 42  2  0  0  0
 39 40  1  0  0  0
 41 43  2  0  0  0
 42 43  1  0  0  0
M  END
>  <CHROM.0>
-170.61281440,-178.28208161,59.79834625

>  <CHROM.1>
-60.90609180,-164.98386213,-64.14766273,-66.72638355,41.31004483,-88.06578811
-168.65541906,-58.53073037,47.62716612,-56.14466301,30.98120424,-81.06696002
-13.14361563,17.03771105,46.67091409,-18.32704706,-47.85839563,-2.58949726
18.03350280,2.30254859,-0.04035127,-2.81095312

>  <HEADER>
                                                                          

>  <MASTER>
        0    0    0    0    0    0    0    0   73    0   73    0          

>  <Name>
Rutin.pdb

>  <RI>
-1.05846e+09

>  <Rbt.Current_Directory>
/root/miniconda3/envs/rdock/share/rxdock-2013.1.1_148c5bd1-0/data/ligands/prepped_ligands/Rutin

>  <Rbt.Executable>
rbdock/0.1.0

>  <Rbt.Library>
librxdock.so/0.1.0

>  <Rbt.Parameter_File>
/root/miniconda3/envs/rdock/share/rxdock-2013.1.1_148c5bd1-0/data/scripts/dock.prm

>  <Rbt.Receptor>
def.prm

>  <SCORE>
-32.8586

>  <SCORE.INTER>
-9.80398

>  <SCORE.INTER.CONST>
1

>  <SCORE.INTER.POLAR>
0

>  <SCORE.INTER.REPUL>
0.000501099

>  <SCORE.INTER.ROT>
6

>  <SCORE.INTER.VDW>
-21.2065

>  <SCORE.INTER.norm>
-0.227999

>  <SCORE.INTRA>
-23.037

>  <SCORE.INTRA.DIHEDRAL>
-32.947

>  <SCORE.INTRA.DIHEDRAL.0>
50.0277

>  <SCORE.INTRA.POLAR>
-1.57856

>  <SCORE.INTRA.POLAR.0>
-0.00836998

>  <SCORE.INTRA.REPUL>
0

>  <SCORE.INTRA.REPUL.0>
0

>  <SCORE.INTRA.VDW>
-1.1964

>  <SCORE.INTRA.VDW.0>
-4.42487

>  <SCORE.INTRA.norm>
-0.535744

>  <SCORE.RESTR>
0.906052

>  <SCORE.RESTR.CAVITY>
0.906052

>  <SCORE.RESTR.norm>
0.021071

>  <SCORE.SYSTEM>
-0.923703

>  <SCORE.SYSTEM.CONST>
0

>  <SCORE.SYSTEM.DIHEDRAL>
0.22143

>  <SCORE.SYSTEM.POLAR>
-0.000566777

>  <SCORE.SYSTEM.VDW>
-1.03249

>  <SCORE.SYSTEM.norm>
-0.0214815

>  <SCORE.heavy>
43

>  <SCORE.norm>
-0.764154

>  <TITLE>
    Rutin_D                                                               

$$$$
Rutin.pdb
  RxDock  02242113183D
librxdock.so/0.1.0
 53 57  0  0  0  0  0  0  0  0999 V2000
  -50.0828   -3.0602   15.9088 O   0  0  0  0  0  0
  -47.3780   -1.6015   16.4460 O   0  0  0  0  0  0
  -48.3042   -1.3202   18.6598 O   0  0  0  0  0  0
  -47.8583   -1.5005   13.3594 O   0  0  0  0  0  0
  -50.3940   -0.2667   12.7833 O   0  0  0  0  0  0
  -52.4485   -3.3038   16.0012 O   0  0  0  0  0  0
  -52.7178   -1.7101   13.6762 O   0  0  0  0  0  0
  -45.5757   -0.7691   19.5568 O   0  0  0  0  0  0
  -45.5243    1.7897   18.3794 O   0  0  0  0  0  0
  -48.3462    2.3922   18.4111 O   0  0  0  0  0  0
  -52.5465   -6.3864   18.0828 O   0  0  0  0  0  0
  -50.8662   -2.7215   18.0468 O   0  0  0  0  0  0
  -49.8518   -3.1811   20.4721 O   0  0  0  0  0  0
  -50.6791   -7.4698   22.2743 O   0  0  0  0  0  0
  -57.3710   -5.9642   15.5125 O   0  0  0  0  0  0
  -56.5066   -7.2542   13.2400 O   0  0  0  0  0  0
  -48.9172   -2.9080   15.0697 C   0  0  0  0  0  0
  -48.9715   -1.5928   14.2611 C   0  0  0  0  0  0
  -50.2903   -1.5243   13.4670 C   0  0  0  0  0  0
  -51.4875   -1.7172   14.4149 C   0  0  0  0  0  0
  -46.0123   -0.5950   18.1998 C   0  0  0  0  0  0
  -47.1304   -1.6021   17.8658 C   0  0  0  0  0  0
  -46.5231    0.8417   17.9734 C   0  0  0  0  0  0
  -47.8360    1.0924   18.7429 C   0  0  0  0  0  0
  -51.3126   -3.0564   15.1553 C   0  0  0  0  0  0
  -47.6514   -2.9196   15.9420 C   0  0  0  0  0  0
  -48.8578   -0.0138   18.3995 C   0  0  0  0  0  0
  -50.1355    0.1710   19.2337 C   0  0  0  0  0  0
  -52.2501   -4.2150   17.0386 C   0  0  0  0  0  0
  -52.8155   -5.4697   17.0898 C   0  0  0  0  0  0
  -51.3993   -3.8285   18.1106 C   0  0  0  0  0  0
  -51.1938   -4.7350   19.2216 C   0  0  0  0  0  0
  -53.7634   -5.9607   16.0581 C   0  0  0  0  0  0
  -51.7893   -5.9947   19.1388 C   0  0  0  0  0  0
  -50.4297   -4.4040   20.3529 C   0  0  0  0  0  0
  -51.6058   -6.8974   20.1709 C   0  0  0  0  0  0
  -55.1233   -5.7454   16.2434 C   0  0  0  0  0  0
  -53.3468   -6.6072   14.9020 C   0  0  0  0  0  0
  -50.2608   -5.3169   21.3595 C   0  0  0  0  0  0
  -50.8487   -6.5702   21.2728 C   0  0  0  0  0  0
  -56.0392   -6.1760   15.3129 C   0  0  0  0  0  0
  -54.2582   -7.0359   13.9663 C   0  0  0  0  0  0
  -55.6057   -6.8261   14.1662 C   0  0  0  0  0  0
  -47.6733   -2.3848   12.9159 H   0  0  0  0  0  0
  -49.7000   -0.1861   12.0586 H   0  0  0  0  0  0
  -52.8447   -2.5697   13.1693 H   0  0  0  0  0  0
  -46.3070   -0.5413   20.2089 H   0  0  0  0  0  0
  -45.8261    2.7343   18.2096 H   0  0  0  0  0  0
  -49.1263    2.6411   18.9945 H   0  0  0  0  0  0
  -49.4768   -2.8572   19.6005 H   0  0  0  0  0  0
  -49.7046   -7.6019   22.4893 H   0  0  0  0  0  0
  -57.5683   -4.9915   15.6792 H   0  0  0  0  0  0
  -56.2637   -6.9386   12.3170 H   0  0  0  0  0  0
  1 17  1  0  0  0
  1 25  1  0  0  0
  2 22  1  0  0  0
  2 26  1  0  0  0
  3 22  1  0  0  0
  3 27  1  0  0  0
  4 18  1  0  0  0
  4 44  1  0  0  0
  5 19  1  0  0  0
  5 45  1  0  0  0
  6 25  1  0  0  0
  6 29  1  0  0  0
  7 20  1  0  0  0
  7 46  1  0  0  0
  8 21  1  0  0  0
  8 47  1  0  0  0
  9 23  1  0  0  0
  9 48  1  0  0  0
 10 24  1  0  0  0
 10 49  1  0  0  0
 11 30  1  0  0  0
 11 34  1  0  0  0
 12 31  2  0  0  0
 13 35  1  0  0  0
 13 50  1  0  0  0
 14 40  1  0  0  0
 14 51  1  0  0  0
 15 41  1  0  0  0
 15 52  1  0  0  0
 16 43  1  0  0  0
 16 53  1  0  0  0
 17 18  1  0  0  0
 17 26  1  0  0  0
 18 19  1  0  0  0
 19 20  1  0  0  0
 20 25  1  0  0  0
 21 22  1  0  0  0
 23 21  1  0  0  0
 24 23  1  0  0  0
 27 24  1  0  0  0
 27 28  1  0  0  0
 29 30  2  0  0  0
 29 31  1  0  0  0
 30 33  1  0  0  0
 31 32  1  0  0  0
 32 34  2  0  0  0
 32 35  1  0  0  0
 33 37  2  0  0  0
 33 38  1  0  0  0
 34 36  1  0  0  0
 35 39  2  0  0  0
 36 40  2  0  0  0
 37 41  1  0  0  0
 38 42  2  0  0  0
 39 40  1  0  0  0
 41 43  2  0  0  0
 42 43  1  0  0  0
M  END
>  <CHROM.0>
66.74440630,179.92541976,69.14087242

>  <CHROM.1>
-94.41902498,130.94595894,41.40696732,67.01382502,-36.63112254,-110.17222285
74.59065036,-65.31404741,178.01853929,-171.69436955,-39.60734787,127.38282460
54.38996830,128.71435859,-85.45356976,90.21635291,-50.68122263,-3.18552671
17.04250382,0.11250286,-0.72662297,-1.06712251

>  <HEADER>
                                                                          

>  <MASTER>
        0    0    0    0    0    0    0    0   73    0   73    0          

>  <Name>
Rutin.pdb

>  <RI>
-1.05846e+09

>  <Rbt.Current_Directory>
/root/miniconda3/envs/rdock/share/rxdock-2013.1.1_148c5bd1-0/data/ligands/prepped_ligands/Rutin

>  <Rbt.Executable>
rbdock/0.1.0

>  <Rbt.Library>
librxdock.so/0.1.0

>  <Rbt.Parameter_File>
/root/miniconda3/envs/rdock/share/rxdock-2013.1.1_148c5bd1-0/data/scripts/dock.prm

>  <Rbt.Receptor>
def.prm

>  <SCORE>
-17.3631

>  <SCORE.INTER>
-10.7075

>  <SCORE.INTER.CONST>
1

>  <SCORE.INTER.POLAR>
-1.46816

>  <SCORE.INTER.REPUL>
0.399566

>  <SCORE.INTER.ROT>
6

>  <SCORE.INTER.VDW>
-19.1136

>  <SCORE.INTER.norm>
-0.249013

>  <SCORE.INTRA>
-7.1332

>  <SCORE.INTRA.DIHEDRAL>
-11.1196

>  <SCORE.INTRA.DIHEDRAL.0>
50.0277

>  <SCORE.INTRA.POLAR>
-0.884142

>  <SCORE.INTRA.POLAR.0>
-0.00836998

>  <SCORE.INTRA.REPUL>
0

>  <SCORE.INTRA.REPUL.0>
0

>  <SCORE.INTRA.VDW>
1.43267

>  <SCORE.INTRA.VDW.0>
-4.42487

>  <SCORE.INTRA.norm>
-0.165888

>  <SCORE.RESTR>
1.31764

>  <SCORE.RESTR.CAVITY>
1.31764

>  <SCORE.RESTR.norm>
0.0306429

>  <SCORE.SYSTEM>
-0.840012

>  <SCORE.SYSTEM.CONST>
0

>  <SCORE.SYSTEM.DIHEDRAL>
0.301487

>  <SCORE.SYSTEM.POLAR>
-0.0160115

>  <SCORE.SYSTEM.VDW>
-0.936317

>  <SCORE.SYSTEM.norm>
-0.0195352

>  <SCORE.heavy>
43

>  <SCORE.norm>
-0.403793

>  <TITLE>
    Rutin_D                                                               

$$$$
Rutin.pdb
  RxDock  02242113183D
librxdock.so/0.1.0
 53 57  0  0  0  0  0  0  0  0999 V2000
  -51.2235   -2.8954   19.8127 O   0  0  0  0  0  0
  -48.4917   -2.2414   20.0085 O   0  0  0  0  0  0
  -48.3975   -1.8164   17.6319 O   0  0  0  0  0  0
  -49.4675   -4.4918   22.6847 O   0  0  0  0  0  0
  -50.7163   -6.7502   21.4104 O   0  0  0  0  0  0
  -53.0489   -3.6301   18.4738 O   0  0  0  0  0  0
  -52.9975   -6.1513   19.7617 O   0  0  0  0  0  0
  -48.1173    1.0143   18.3118 O   0  0  0  0  0  0
  -45.4533    0.7171   19.1780 O   0  0  0  0  0  0
  -44.6848   -1.5723   17.5985 O   0  0  0  0  0  0
  -51.2980   -4.1335   15.2295 O   0  0  0  0  0  0
  -51.8874   -1.2896   18.0260 O   0  0  0  0  0  0
  -50.1876    0.3105   16.7329 O   0  0  0  0  0  0
  -48.4254   -1.3883   12.6914 O   0  0  0  0  0  0
  -55.3032   -7.6853   15.0462 O   0  0  0  0  0  0
  -54.1073   -9.5936   16.6287 O   0  0  0  0  0  0
  -50.5559   -2.9743   21.0910 C   0  0  0  0  0  0
  -50.0405   -4.4033   21.3714 C   0  0  0  0  0  0
  -51.2003   -5.4096   21.2418 C   0  0  0  0  0  0
  -51.8812   -5.2561   19.8701 C   0  0  0  0  0  0
  -47.7692   -0.0524   19.2081 C   0  0  0  0  0  0
  -48.6628   -1.2811   18.9475 C   0  0  0  0  0  0
  -46.2876   -0.4429   19.0387 C   0  0  0  0  0  0
  -46.0421   -1.1114   17.6708 C   0  0  0  0  0  0
  -52.3463   -3.7958   19.7171 C   0  0  0  0  0  0
  -49.3745   -1.9910   21.1149 C   0  0  0  0  0  0
  -47.0388   -2.2751   17.4758 C   0  0  0  0  0  0
  -46.8679   -2.8871   16.0762 C   0  0  0  0  0  0
  -52.2539   -3.4263   17.3458 C   0  0  0  0  0  0
  -52.0218   -4.3767   16.3765 C   0  0  0  0  0  0
  -51.6507   -2.1493   17.1784 C   0  0  0  0  0  0
  -50.7927   -1.9093   16.0362 C   0  0  0  0  0  0
  -52.5513   -5.7603   16.4723 C   0  0  0  0  0  0
  -50.6674   -2.9386   15.1018 C   0  0  0  0  0  0
  -50.1008   -0.7035   15.8343 C   0  0  0  0  0  0
  -49.8701   -2.7459   13.9878 C   0  0  0  0  0  0
  -53.6734   -6.0995   15.7268 C   0  0  0  0  0  0
  -51.9584   -6.7388   17.2591 C   0  0  0  0  0  0
  -49.3204   -0.5369   14.7214 C   0  0  0  0  0  0
  -49.2017   -1.5589   13.7911 C   0  0  0  0  0  0
  -54.1969   -7.3697   15.7776 C   0  0  0  0  0  0
  -52.4752   -8.0117   17.3101 C   0  0  0  0  0  0
  -53.5953   -8.3336   16.5743 C   0  0  0  0  0  0
  -49.0982   -5.4113   22.8609 H   0  0  0  0  0  0
  -50.2944   -6.8757   22.3157 H   0  0  0  0  0  0
  -52.7334   -7.0943   19.9921 H   0  0  0  0  0  0
  -47.6018    1.8521   18.5219 H   0  0  0  0  0  0
  -45.5583    1.1362   20.0867 H   0  0  0  0  0  0
  -44.4714   -1.9470   16.6902 H   0  0  0  0  0  0
  -49.2835    0.6352   17.0202 H   0  0  0  0  0  0
  -48.1951   -0.4186   12.5503 H   0  0  0  0  0  0
  -55.7527   -6.8610   14.6839 H   0  0  0  0  0  0
  -54.7492   -9.7629   15.8739 H   0  0  0  0  0  0
  1 17  1  0  0  0
  1 25  1  0  0  0
  2 22  1  0  0  0
  2 26  1  0  0  0
  3 22  1  0  0  0
  3 27  1  0  0  0
  4 18  1  0  0  0
  4 44  1  0  0  0
  5 19  1  0  0  0
  5 45  1  0  0  0
  6 25  1  0  0  0
  6 29  1  0  0  0
  7 20  1  0  0  0
  7 46  1  0  0  0
  8 21  1  0  0  0
  8 47  1  0  0  0
  9 23  1  0  0  0
  9 48  1  0  0  0
 10 24  1  0  0  0
 10 49  1  0  0  0
 11 30  1  0  0  0
 11 34  1  0  0  0
 12 31  2  0  0  0
 13 35  1  0  0  0
 13 50  1  0  0  0
 14 40  1  0  0  0
 14 51  1  0  0  0
 15 41  1  0  0  0
 15 52  1  0  0  0
 16 43  1  0  0  0
 16 53  1  0  0  0
 17 18  1  0  0  0
 17 26  1  0  0  0
 18 19  1  0  0  0
 19 20  1  0  0  0
 20 25  1  0  0  0
 21 22  1  0  0  0
 23 21  1  0  0  0
 24 23  1  0  0  0
 27 24  1  0  0  0
 27 28  1  0  0  0
 29 30  2  0  0  0
 29 31  1  0  0  0
 30 33  1  0  0  0
 31 32  1  0  0  0
 32 34  2  0  0  0
 32 35  1  0  0  0
 33 37  2  0  0  0
 33 38  1  0  0  0
 34 36  1  0  0  0
 35 39  2  0  0  0
 36 40  2  0  0  0
 37 41  1  0  0  0
 38 42  2  0  0  0
 39 40  1  0  0  0
 41 43  2  0  0  0
 42 43  1  0  0  0
M  END
>  <CHROM.0>
56.49507630,60.70986349,-66.45730996

>  <CHROM.1>
-148.94683407,102.76323445,-177.84837068,60.11804062,39.97135634,105.61116857
-51.73771950,174.86646951,60.58376726,-175.39991591,127.89563542,165.22940702
-12.85652291,15.51354252,-55.18691796,-77.42806523,-50.32090288,-3.37469317
17.77235734,-3.02564417,-0.81033538,-1.33162530

>  <HEADER>
                                                                          

>  <MASTER>
        0    0    0    0    0    0    0    0   73    0   73    0          

>  <Name>
Rutin.pdb

>  <RI>
-1.05846e+09

>  <Rbt.Current_Directory>
/root/miniconda3/envs/rdock/share/rxdock-2013.1.1_148c5bd1-0/data/ligands/prepped_ligands/Rutin

>  <Rbt.Executable>
rbdock/0.1.0

>  <Rbt.Library>
librxdock.so/0.1.0

>  <Rbt.Parameter_File>
/root/miniconda3/envs/rdock/share/rxdock-2013.1.1_148c5bd1-0/data/scripts/dock.prm

>  <Rbt.Receptor>
def.prm

>  <SCORE>
-30.3609

>  <SCORE.INTER>
-12.4658

>  <SCORE.INTER.CONST>
1

>  <SCORE.INTER.POLAR>
-1.66786

>  <SCORE.INTER.REPUL>
0.430532

>  <SCORE.INTER.ROT>
6

>  <SCORE.INTER.VDW>
-20.3478

>  <SCORE.INTER.norm>
-0.289902

>  <SCORE.INTRA>
-18.2566

>  <SCORE.INTRA.DIHEDRAL>
-24.9002

>  <SCORE.INTRA.DIHEDRAL.0>
50.0277

>  <SCORE.INTRA.POLAR>
-1.05715

>  <SCORE.INTRA.POLAR.0>
-0.00836998

>  <SCORE.INTRA.REPUL>
0

>  <SCORE.INTRA.REPUL.0>
0

>  <SCORE.INTRA.VDW>
-2.21216

>  <SCORE.INTRA.VDW.0>
-4.42487

>  <SCORE.INTRA.norm>
-0.424572

>  <SCORE.RESTR>
1.29386

>  <SCORE.RESTR.CAVITY>
1.29386

>  <SCORE.RESTR.norm>
0.0300897

>  <SCORE.SYSTEM>
-0.932342

>  <SCORE.SYSTEM.CONST>
0

>  <SCORE.SYSTEM.DIHEDRAL>
0.142555

>  <SCORE.SYSTEM.VDW>
-1.00362

>  <SCORE.SYSTEM.norm>
-0.0216824

>  <SCORE.heavy>
43

>  <SCORE.norm>
-0.706067

>  <TITLE>
    Rutin_D                                                               

$$$$
Rutin.pdb
  RxDock  02242113183D
librxdock.so/0.1.0
 53 57  0  0  0  0  0  0  0  0999 V2000
  -49.7548   -3.5908   16.1809 O   0  0  0  0  0  0
  -47.3771   -2.4612   16.8955 O   0  0  0  0  0  0
  -45.3227   -1.2653   16.4629 O   0  0  0  0  0  0
  -48.2346   -1.8395   13.2649 O   0  0  0  0  0  0
  -50.9153   -0.7918   13.2675 O   0  0  0  0  0  0
  -52.0243   -4.0114   16.7609 O   0  0  0  0  0  0
  -52.8904   -2.4149   14.5885 O   0  0  0  0  0  0
  -46.6580    1.0987   17.5502 O   0  0  0  0  0  0
  -46.5020    0.1741   20.2067 O   0  0  0  0  0  0
  -44.1736   -1.5171   19.9930 O   0  0  0  0  0  0
  -52.0200   -7.6041   17.7292 O   0  0  0  0  0  0
  -50.2822   -4.1139   18.7564 O   0  0  0  0  0  0
  -49.0964   -5.3295   20.8150 O   0  0  0  0  0  0
  -49.8617   -9.9775   21.1844 O   0  0  0  0  0  0
  -55.7245   -9.0991   14.9028 O   0  0  0  0  0  0
  -56.3007   -7.0463   13.1621 O   0  0  0  0  0  0
  -48.8064   -3.3421   15.1203 C   0  0  0  0  0  0
  -49.1229   -2.0253   14.3773 C   0  0  0  0  0  0
  -50.5812   -2.0461   13.8797 C   0  0  0  0  0  0
  -51.5344   -2.3389   15.0521 C   0  0  0  0  0  0
  -47.0502   -0.2463   17.8658 C   0  0  0  0  0  0
  -46.7490   -1.1823   16.6786 C   0  0  0  0  0  0
  -46.3110   -0.7473   19.1223 C   0  0  0  0  0  0
  -44.8055   -0.9338   18.8439 C   0  0  0  0  0  0
  -51.1131   -3.6700   15.7025 C   0  0  0  0  0  0
  -47.3873   -3.2695   15.7069 C   0  0  0  0  0  0
  -44.6152   -1.8181   17.5920 C   0  0  0  0  0  0
  -43.1213   -1.9313   17.2483 C   0  0  0  0  0  0
  -51.7646   -5.2089   17.4275 C   0  0  0  0  0  0
  -52.3468   -6.4164   17.1116 C   0  0  0  0  0  0
  -50.8286   -5.1855   18.4980 C   0  0  0  0  0  0
  -50.5562   -6.4025   19.2349 C   0  0  0  0  0  0
  -53.3783   -6.5524   16.0526 C   0  0  0  0  0  0
  -51.1785   -7.5713   18.7935 C   0  0  0  0  0  0
  -49.7032   -6.4515   20.3499 C   0  0  0  0  0  0
  -50.9340   -8.7592   19.4589 C   0  0  0  0  0  0
  -54.0805   -7.7469   15.9531 C   0  0  0  0  0  0
  -53.6883   -5.5265   15.1697 C   0  0  0  0  0  0
  -49.4752   -7.6409   20.9892 C   0  0  0  0  0  0
  -50.0902   -8.8024   20.5456 C   0  0  0  0  0  0
  -55.0493   -7.9182   14.9929 C   0  0  0  0  0  0
  -54.6593   -5.6909   14.2106 C   0  0  0  0  0  0
  -55.3419   -6.8844   14.1146 C   0  0  0  0  0  0
  -48.2260   -2.6479   12.6655 H   0  0  0  0  0  0
  -50.7822   -0.0257   13.9068 H   0  0  0  0  0  0
  -53.0032   -3.1465   13.9073 H   0  0  0  0  0  0
  -46.9054    1.7352   18.2889 H   0  0  0  0  0  0
  -47.4778    0.2843   20.4253 H   0  0  0  0  0  0
  -43.1840   -1.6267   19.8526 H   0  0  0  0  0  0
  -49.7056   -4.5338   20.7845 H   0  0  0  0  0  0
  -50.6114  -10.6315   21.0311 H   0  0  0  0  0  0
  -55.4141   -9.7549   15.6002 H   0  0  0  0  0  0
  -56.7387   -7.9484   13.2304 H   0  0  0  0  0  0
  1 17  1  0  0  0
  1 25  1  0  0  0
  2 22  1  0  0  0
  2 26  1  0  0  0
  3 22  1  0  0  0
  3 27  1  0  0  0
  4 18  1  0  0  0
  4 44  1  0  0  0
  5 19  1  0  0  0
  5 45  1  0  0  0
  6 25  1  0  0  0
  6 29  1  0  0  0
  7 20  1  0  0  0
  7 46  1  0  0  0
  8 21  1  0  0  0
  8 47  1  0  0  0
  9 23  1  0  0  0
  9 48  1  0  0  0
 10 24  1  0  0  0
 10 49  1  0  0  0
 11 30  1  0  0  0
 11 34  1  0  0  0
 12 31  2  0  0  0
 13 35  1  0  0  0
 13 50  1  0  0  0
 14 40  1  0  0  0
 14 51  1  0  0  0
 15 41  1  0  0  0
 15 52  1  0  0  0
 16 43  1  0  0  0
 16 53  1  0  0  0
 17 18  1  0  0  0
 17 26  1  0  0  0
 18 19  1  0  0  0
 19 20  1  0  0  0
 20 25  1  0  0  0
 21 22  1  0  0  0
 23 21  1  0  0  0
 24 23  1  0  0  0
 27 24  1  0  0  0
 27 28  1  0  0  0
 29 30  2  0  0  0
 29 31  1  0  0  0
 30 33  1  0  0  0
 31 32  1  0  0  0
 32 34  2  0  0  0
 32 35  1  0  0  0
 33 37  2  0  0  0
 33 38  1  0  0  0
 34 36  1  0  0  0
 35 39  2  0  0  0
 36 40  2  0  0  0
 37 41  1  0  0  0
 38 42  2  0  0  0
 39 40  1  0  0  0
 41 43  2  0  0  0
 42 43  1  0  0  0
M  END
>  <CHROM.0>
76.25558219,-56.67456296,-176.74947997

>  <CHROM.1>
-69.24516122,-107.09730800,52.56555214,-57.75337804,-57.73174323,-94.65922980
60.12859799,176.06501555,59.17606919,-178.32148615,39.55889572,-23.19387516
0.08074347,2.10510294,-45.23004658,11.86184435,-49.95905508,-4.22399499,17.00239746
0.31096464,-0.61749985,-0.78289878

>  <HEADER>
                                                                          

>  <MASTER>
        0    0    0    0    0    0    0    0   73    0   73    0          

>  <Name>
Rutin.pdb

>  <RI>
-1.05846e+09

>  <Rbt.Current_Directory>
/root/miniconda3/envs/rdock/share/rxdock-2013.1.1_148c5bd1-0/data/ligands/prepped_ligands/Rutin

>  <Rbt.Executable>
rbdock/0.1.0

>  <Rbt.Library>
librxdock.so/0.1.0

>  <Rbt.Parameter_File>
/root/miniconda3/envs/rdock/share/rxdock-2013.1.1_148c5bd1-0/data/scripts/dock.prm

>  <Rbt.Receptor>
def.prm

>  <SCORE>
-34.1842

>  <SCORE.INTER>
-19.3304

>  <SCORE.INTER.CONST>
1

>  <SCORE.INTER.POLAR>
-1.43499

>  <SCORE.INTER.REPUL>
0.473278

>  <SCORE.INTER.ROT>
6

>  <SCORE.INTER.VDW>
-28.2179

>  <SCORE.INTER.norm>
-0.449545

>  <SCORE.INTRA>
-14.9913

>  <SCORE.INTRA.DIHEDRAL>
-34.2688

>  <SCORE.INTRA.DIHEDRAL.0>
50.0277

>  <SCORE.INTRA.POLAR>
-0.0982207

>  <SCORE.INTRA.POLAR.0>
-0.00836998

>  <SCORE.INTRA.REPUL>
0.159579

>  <SCORE.INTRA.REPUL.0>
0

>  <SCORE.INTRA.VDW>
1.67917

>  <SCORE.INTRA.VDW.0>
-4.42487

>  <SCORE.INTRA.norm>
-0.348635

>  <SCORE.RESTR>
0.708778

>  <SCORE.RESTR.CAVITY>
0.708778

>  <SCORE.RESTR.norm>
0.0164832

>  <SCORE.SYSTEM>
-0.571212

>  <SCORE.SYSTEM.CONST>
0

>  <SCORE.SYSTEM.DIHEDRAL>
0.680929

>  <SCORE.SYSTEM.POLAR>
-0.00915317

>  <SCORE.SYSTEM.VDW>
-0.880556

>  <SCORE.SYSTEM.norm>
-0.013284

>  <SCORE.heavy>
43

>  <SCORE.norm>
-0.794981

>  <TITLE>
    Rutin_D                                                               

$$$$
Rutin.pdb
  RxDock  02242113183D
librxdock.so/0.1.0
 53 57  0  0  0  0  0  0  0  0999 V2000
  -50.6099   -3.5118   17.8893 O   0  0  0  0  0  0
  -49.0219   -1.1514   17.8801 O   0  0  0  0  0  0
  -47.2521    0.0988   16.8112 O   0  0  0  0  0  0
  -50.4427   -1.6740   21.1259 O   0  0  0  0  0  0
  -49.7044   -4.3434   21.9090 O   0  0  0  0  0  0
  -50.8307   -5.8307   17.4013 O   0  0  0  0  0  0
  -50.5806   -6.4483   20.1534 O   0  0  0  0  0  0
  -48.1075    2.3819   18.4264 O   0  0  0  0  0  0
  -47.0202    1.3258   20.8010 O   0  0  0  0  0  0
  -44.9243   -0.3136   19.6846 O   0  0  0  0  0  0
  -53.0845   -5.2621   14.4957 O   0  0  0  0  0  0
  -52.4823   -7.9026   17.4826 O   0  0  0  0  0  0
  -54.6843   -9.2163   16.7427 O   0  0  0  0  0  0
  -56.8862   -7.5539   12.9069 O   0  0  0  0  0  0
  -47.8233   -2.9297   14.7218 O   0  0  0  0  0  0
  -49.0042   -0.4434   14.7110 O   0  0  0  0  0  0
  -50.8602   -2.4481   18.8338 C   0  0  0  0  0  0
  -50.1084   -2.6844   20.1624 C   0  0  0  0  0  0
  -50.4659   -4.0748   20.7224 C   0  0  0  0  0  0
  -50.1986   -5.1560   19.6602 C   0  0  0  0  0  0
  -48.3656    1.0163   18.7883 C   0  0  0  0  0  0
  -48.5084    0.1471   17.5232 C   0  0  0  0  0  0
  -47.2295    0.4642   19.6718 C   0  0  0  0  0  0
  -45.9217    0.3170   18.8676 C   0  0  0  0  0  0
  -51.0021   -4.8048   18.3939 C   0  0  0  0  0  0
  -50.4162   -1.1073   18.2268 C   0  0  0  0  0  0
  -46.1910   -0.4991   17.5842 C   0  0  0  0  0  0
  -44.9171   -0.5700   16.7271 C   0  0  0  0  0  0
  -51.8650   -5.9622   16.4745 C   0  0  0  0  0  0
  -52.1072   -5.0754   15.4490 C   0  0  0  0  0  0
  -52.7210   -7.0922   16.5882 C   0  0  0  0  0  0
  -53.8256   -7.2469   15.6640 C   0  0  0  0  0  0
  -51.3165   -3.8325   15.2652 C   0  0  0  0  0  0
  -53.9430   -6.3029   14.6425 C   0  0  0  0  0  0
  -54.7603   -8.2920   15.7510 C   0  0  0  0  0  0
  -54.9745   -6.4219   13.7284 C   0  0  0  0  0  0
  -49.9438   -3.9353   15.0776 C   0  0  0  0  0  0
  -51.8942   -2.5700   15.2497 C   0  0  0  0  0  0
  -55.7704   -8.3891   14.8315 C   0  0  0  0  0  0
  -55.8821   -7.4532   13.8138 C   0  0  0  0  0  0
  -49.1703   -2.8132   14.8969 C   0  0  0  0  0  0
  -51.1260   -1.4450   15.0649 C   0  0  0  0  0  0
  -49.7635   -1.5588   14.8905 C   0  0  0  0  0  0
  -50.0546   -0.7817   20.8689 H   0  0  0  0  0  0
  -48.7298   -4.4775   21.6957 H   0  0  0  0  0  0
  -50.0695   -6.6874   20.9862 H   0  0  0  0  0  0
  -47.9761    2.9579   19.2406 H   0  0  0  0  0  0
  -47.8528    1.4044   21.3603 H   0  0  0  0  0  0
  -44.7550    0.2084   20.5271 H   0  0  0  0  0  0
  -55.3763   -9.9344   16.6395 H   0  0  0  0  0  0
  -57.6133   -8.1707   13.2297 H   0  0  0  0  0  0
  -47.5854   -3.7900   14.2570 H   0  0  0  0  0  0
  -49.5300    0.3933   14.8952 H   0  0  0  0  0  0
  1 17  1  0  0  0
  1 25  1  0  0  0
  2 22  1  0  0  0
  2 26  1  0  0  0
  3 22  1  0  0  0
  3 27  1  0  0  0
  4 18  1  0  0  0
  4 44  1  0  0  0
  5 19  1  0  0  0
  5 45  1  0  0  0
  6 25  1  0  0  0
  6 29  1  0  0  0
  7 20  1  0  0  0
  7 46  1  0  0  0
  8 21  1  0  0  0
  8 47  1  0  0  0
  9 23  1  0  0  0
  9 48  1  0  0  0
 10 24  1  0  0  0
 10 49  1  0  0  0
 11 30  1  0  0  0
 11 34  1  0  0  0
 12 31  2  0  0  0
 13 35  1  0  0  0
 13 50  1  0  0  0
 14 40  1  0  0  0
 14 51  1  0  0  0
 15 41  1  0  0  0
 15 52  1  0  0  0
 16 43  1  0  0  0
 16 53  1  0  0  0
 17 18  1  0  0  0
 17 26  1  0  0  0
 18 19  1  0  0  0
 19 20  1  0  0  0
 20 25  1  0  0  0
 21 22  1  0  0  0
 23 21  1  0  0  0
 24 23  1  0  0  0
 27 24  1  0  0  0
 27 28  1  0  0  0
 29 30  2  0  0  0
 29 31  1  0  0  0
 30 33  1  0  0  0
 31 32  1  0  0  0
 32 34  2  0  0  0
 32 35  1  0  0  0
 33 37  2  0  0  0
 33 38  1  0  0  0
 34 36  1  0  0  0
 35 39  2  0  0  0
 36 40  2  0  0  0
 37 41  1  0  0  0
 38 42  2  0  0  0
 39 40  1  0  0  0
 41 43  2  0  0  0
 42 43  1  0  0  0
M  END
>  <CHROM.0>
66.16765242,-63.71697087,-178.21533541

>  <CHROM.1>
-163.15734528,-170.05852391,-70.06785014,-69.41493735,-82.70214415,73.30264310
-59.49590095,-177.80975004,59.50327069,-57.90248659,-175.99714187,-163.47162078
31.18141180,-169.59414005,-58.24808251,-120.13438057,-50.50146953,-3.42786011
17.20555232,0.04960449,0.85319145,1.94041890

>  <HEADER>
                                                                          

>  <MASTER>
        0    0    0    0    0    0    0    0   73    0   73    0          

>  <Name>
Rutin.pdb

>  <RI>
-1.05846e+09

>  <Rbt.Current_Directory>
/root/miniconda3/envs/rdock/share/rxdock-2013.1.1_148c5bd1-0/data/ligands/prepped_ligands/Rutin

>  <Rbt.Executable>
rbdock/0.1.0

>  <Rbt.Library>
librxdock.so/0.1.0

>  <Rbt.Parameter_File>
/root/miniconda3/envs/rdock/share/rxdock-2013.1.1_148c5bd1-0/data/scripts/dock.prm

>  <Rbt.Receptor>
def.prm

>  <SCORE>
-37.8047

>  <SCORE.INTER>
-18.1542

>  <SCORE.INTER.CONST>
1

>  <SCORE.INTER.POLAR>
-2.64845

>  <SCORE.INTER.REPUL>
0.15363

>  <SCORE.INTER.ROT>
6

>  <SCORE.INTER.VDW>
-21.3177

>  <SCORE.INTER.norm>
-0.422192

>  <SCORE.INTRA>
-19.0741

>  <SCORE.INTRA.DIHEDRAL>
-35.1287

>  <SCORE.INTRA.DIHEDRAL.0>
50.0277

>  <SCORE.INTRA.POLAR>
0.00836998

>  <SCORE.INTRA.POLAR.0>
-0.00836998

>  <SCORE.INTRA.REPUL>
0

>  <SCORE.INTRA.REPUL.0>
0

>  <SCORE.INTRA.VDW>
-1.5382

>  <SCORE.INTRA.VDW.0>
-4.42487

>  <SCORE.INTRA.norm>
-0.443583

>  <SCORE.RESTR>
0.448237

>  <SCORE.RESTR.CAVITY>
0.448237

>  <SCORE.RESTR.norm>
0.0104241

>  <SCORE.SYSTEM>
-1.02463

>  <SCORE.SYSTEM.CONST>
0

>  <SCORE.SYSTEM.DIHEDRAL>
0.163126

>  <SCORE.SYSTEM.POLAR>
-0.00616931

>  <SCORE.SYSTEM.VDW>
-1.08522

>  <SCORE.SYSTEM.norm>
-0.0238286

>  <SCORE.heavy>
43

>  <SCORE.norm>
-0.879179

>  <TITLE>
    Rutin_D                                                               

$$$$
Rutin.pdb
  RxDock  02242113193D
librxdock.so/0.1.0
 53 57  0  0  0  0  0  0  0  0999 V2000
  -50.7540   -3.1445   19.2024 O   0  0  0  0  0  0
  -54.0783   -3.9765   18.0792 O   0  0  0  0  0  0
  -54.7154   -4.7532   15.8818 O   0  0  0  0  0  0
  -53.2747   -5.4652   20.6656 O   0  0  0  0  0  0
  -51.0605   -5.7571   22.4811 O   0  0  0  0  0  0
  -48.3897   -3.0254   19.4472 O   0  0  0  0  0  0
  -48.4785   -5.0475   21.4275 O   0  0  0  0  0  0
  -51.9275   -4.3366   15.1022 O   0  0  0  0  0  0
  -51.0169   -6.5960   16.5171 O   0  0  0  0  0  0
  -53.4218   -8.1905   16.4793 O   0  0  0  0  0  0
  -47.7043   -0.3468   16.9572 O   0  0  0  0  0  0
  -48.9327   -4.1834   17.1253 O   0  0  0  0  0  0
  -49.3794   -4.1381   14.4946 O   0  0  0  0  0  0
  -48.2344   -0.1258   12.2774 O   0  0  0  0  0  0
  -45.9631   -0.6332   22.5907 O   0  0  0  0  0  0
  -46.6331    2.0334   22.7201 O   0  0  0  0  0  0
  -51.9312   -3.9803   19.2454 C   0  0  0  0  0  0
  -52.1611   -4.5593   20.6589 C   0  0  0  0  0  0
  -50.8918   -5.2930   21.1335 C   0  0  0  0  0  0
  -49.6746   -4.3558   21.0398 C   0  0  0  0  0  0
  -52.3457   -4.5496   16.4594 C   0  0  0  0  0  0
  -53.7696   -3.9986   16.6716 C   0  0  0  0  0  0
  -52.3124   -6.0505   16.8092 C   0  0  0  0  0  0
  -53.4002   -6.8251   16.0376 C   0  0  0  0  0  0
  -49.5579   -3.8515   19.5892 C   0  0  0  0  0  0
  -53.1601   -3.1586   18.8236 C   0  0  0  0  0  0
  -54.7710   -6.1463   16.2520 C   0  0  0  0  0  0
  -55.8464   -6.8521   15.4105 C   0  0  0  0  0  0
  -48.2838   -2.3185   18.2493 C   0  0  0  0  0  0
  -47.8786   -1.0057   18.1548 C   0  0  0  0  0  0
  -48.6053   -3.0003   17.0434 C   0  0  0  0  0  0
  -48.5381   -2.2906   15.7824 C   0  0  0  0  0  0
  -47.5720   -0.1771   19.3478 C   0  0  0  0  0  0
  -48.0746   -0.9743   15.8122 C   0  0  0  0  0  0
  -48.9083   -2.8661   14.5555 C   0  0  0  0  0  0
  -47.9797   -0.2649   14.6284 C   0  0  0  0  0  0
  -46.9136   -0.7666   20.4197 C   0  0  0  0  0  0
  -47.8954    1.1708   19.4296 C   0  0  0  0  0  0
  -48.8019   -2.1434   13.3973 C   0  0  0  0  0  0
  -48.3358   -0.8373   13.4283 C   0  0  0  0  0  0
  -46.6026   -0.0387   21.5437 C   0  0  0  0  0  0
  -47.5827    1.9044   20.5494 C   0  0  0  0  0  0
  -46.9389    1.3060   21.6110 C   0  0  0  0  0  0
  -53.6464   -5.5802   21.5938 H   0  0  0  0  0  0
  -51.1246   -4.9880   23.1275 H   0  0  0  0  0  0
  -48.5262   -5.3514   22.3853 H   0  0  0  0  0  0
  -51.8854   -3.3561   14.8815 H   0  0  0  0  0  0
  -50.2829   -5.9940   16.8504 H   0  0  0  0  0  0
  -52.5848   -8.6777   16.2093 H   0  0  0  0  0  0
  -48.9211   -4.7395   15.1530 H   0  0  0  0  0  0
  -47.3334   -0.2502   11.8460 H   0  0  0  0  0  0
  -45.9803   -1.6363   22.5111 H   0  0  0  0  0  0
  -46.3344    2.9626   22.4799 H   0  0  0  0  0  0
  1 17  1  0  0  0
  1 25  1  0  0  0
  2 22  1  0  0  0
  2 26  1  0  0  0
  3 22  1  0  0  0
  3 27  1  0  0  0
  4 18  1  0  0  0
  4 44  1  0  0  0
  5 19  1  0  0  0
  5 45  1  0  0  0
  6 25  1  0  0  0
  6 29  1  0  0  0
  7 20  1  0  0  0
  7 46  1  0  0  0
  8 21  1  0  0  0
  8 47  1  0  0  0
  9 23  1  0  0  0
  9 48  1  0  0  0
 10 24  1  0  0  0
 10 49  1  0  0  0
 11 30  1  0  0  0
 11 34  1  0  0  0
 12 31  2  0  0  0
 13 35  1  0  0  0
 13 50  1  0  0  0
 14 40  1  0  0  0
 14 51  1  0  0  0
 15 41  1  0  0  0
 15 52  1  0  0  0
 16 43  1  0  0  0
 16 53  1  0  0  0
 17 18  1  0  0  0
 17 26  1  0  0  0
 18 19  1  0  0  0
 19 20  1  0  0  0
 20 25  1  0  0  0
 21 22  1  0  0  0
 23 21  1  0  0  0
 24 23  1  0  0  0
 27 24  1  0  0  0
 27 28  1  0  0  0
 29 30  2  0  0  0
 29 31  1  0  0  0
 30 33  1  0  0  0
 31 32  1  0  0  0
 32 34  2  0  0  0
 32 35  1  0  0  0
 33 37  2  0  0  0
 33 38  1  0  0  0
 34 36  1  0  0  0
 35 39  2  0  0  0
 36 40  2  0  0  0
 37 41  1  0  0  0
 38 42  2  0  0  0
 39 40  1  0  0  0
 41 43  2  0  0  0
 42 43  1  0  0  0
M  END
>  <CHROM.0>
62.94493980,176.32885550,-155.27324313

>  <CHROM.1>
-176.83942265,-87.15048597,-158.92621515,-66.80425839,-46.52275155,137.42108497
-62.26425249,62.35011744,45.21117117,-67.77530708,-36.34558435,90.70492806
-14.00712689,141.33692160,144.36937970,-140.51575991,-50.12927742,-3.11522344
18.01867441,0.31344725,0.78169010,1.66837945

>  <HEADER>
                                                                          

>  <MASTER>
        0    0    0    0    0    0    0    0   73    0   73    0          

>  <Name>
Rutin.pdb

>  <RI>
-1.05846e+09

>  <Rbt.Current_Directory>
/root/miniconda3/envs/rdock/share/rxdock-2013.1.1_148c5bd1-0/data/ligands/prepped_ligands/Rutin

>  <Rbt.Executable>
rbdock/0.1.0

>  <Rbt.Library>
librxdock.so/0.1.0

>  <Rbt.Parameter_File>
/root/miniconda3/envs/rdock/share/rxdock-2013.1.1_148c5bd1-0/data/scripts/dock.prm

>  <Rbt.Receptor>
def.prm

>  <SCORE>
-10.5715

>  <SCORE.INTER>
0.551957

>  <SCORE.INTER.CONST>
1

>  <SCORE.INTER.POLAR>
-1.33192

>  <SCORE.INTER.REPUL>
0.424727

>  <SCORE.INTER.ROT>
6

>  <SCORE.INTER.VDW>
-8.44314

>  <SCORE.INTER.norm>
0.0128362

>  <SCORE.INTRA>
-12.6976

>  <SCORE.INTRA.DIHEDRAL>
-26.2413

>  <SCORE.INTRA.DIHEDRAL.0>
50.0277

>  <SCORE.INTRA.POLAR>
-0.633709

>  <SCORE.INTRA.POLAR.0>
-0.00836998

>  <SCORE.INTRA.REPUL>
0

>  <SCORE.INTRA.REPUL.0>
0

>  <SCORE.INTRA.VDW>
2.57765

>  <SCORE.INTRA.VDW.0>
-4.42487

>  <SCORE.INTRA.norm>
-0.295294

>  <SCORE.RESTR>
1.74972

>  <SCORE.RESTR.CAVITY>
1.74972

>  <SCORE.RESTR.norm>
0.0406913

>  <SCORE.SYSTEM>
-0.175567

>  <SCORE.SYSTEM.CONST>
0

>  <SCORE.SYSTEM.DIHEDRAL>
1.37992

>  <SCORE.SYSTEM.POLAR>
-0.0158559

>  <SCORE.SYSTEM.VDW>
-0.811618

>  <SCORE.SYSTEM.norm>
-0.00408296

>  <SCORE.heavy>
43

>  <SCORE.norm>
-0.245849

>  <TITLE>
    Rutin_D                                                               

$$$$
Rutin.pdb
  RxDock  02242113193D
librxdock.so/0.1.0
 53 57  0  0  0  0  0  0  0  0999 V2000
  -49.8930   -3.9760   18.8089 O   0  0  0  0  0  0
  -48.6794   -2.3533   20.4979 O   0  0  0  0  0  0
  -48.9046    0.0521   20.5280 O   0  0  0  0  0  0
  -51.0780   -4.9888   22.1928 O   0  0  0  0  0  0
  -50.4194   -7.5242   21.0003 O   0  0  0  0  0  0
  -49.7007   -5.1954   16.7742 O   0  0  0  0  0  0
  -50.3997   -7.5848   18.1235 O   0  0  0  0  0  0
  -46.1597    0.1359   21.5341 O   0  0  0  0  0  0
  -45.0434   -0.5325   19.0355 O   0  0  0  0  0  0
  -47.1108    0.4819   17.2964 O   0  0  0  0  0  0
  -51.3711   -2.6830   14.5965 O   0  0  0  0  0  0
  -47.7802   -3.4402   16.2663 O   0  0  0  0  0  0
  -46.7464   -1.3658   14.9433 O   0  0  0  0  0  0
  -49.7868    1.1370   12.3322 O   0  0  0  0  0  0
  -53.0826   -7.9624   16.9306 O   0  0  0  0  0  0
  -55.5504   -7.2533   15.9390 O   0  0  0  0  0  0
  -50.5668   -3.8478   20.0800 C   0  0  0  0  0  0
  -50.3244   -5.0836   20.9746 C   0  0  0  0  0  0
  -50.7248   -6.3628   20.2144 C   0  0  0  0  0  0
  -49.9913   -6.4246   18.8627 C   0  0  0  0  0  0
  -46.6929   -0.9650   20.7816 C   0  0  0  0  0  0
  -48.2062   -1.1045   21.0398 C   0  0  0  0  0  0
  -46.4397   -0.7661   19.2741 C   0  0  0  0  0  0
  -47.2757    0.4056   18.7202 C   0  0  0  0  0  0
  -50.3149   -5.1424   18.0731 C   0  0  0  0  0  0
  -50.0645   -2.5874   20.8027 C   0  0  0  0  0  0
  -48.7596    0.2100   19.1015 C   0  0  0  0  0  0
  -49.5871    1.4196   18.6384 C   0  0  0  0  0  0
  -49.9311   -4.0978   15.9448 C   0  0  0  0  0  0
  -51.1400   -3.8139   15.3492 C   0  0  0  0  0  0
  -48.8498   -3.2056   15.7054 C   0  0  0  0  0  0
  -49.0413   -2.0719   14.8244 C   0  0  0  0  0  0
  -52.3225   -4.7017   15.4805 C   0  0  0  0  0  0
  -50.3239   -1.8678   14.3128 C   0  0  0  0  0  0
  -48.0087   -1.1852   14.4768 C   0  0  0  0  0  0
  -50.5546   -0.7878   13.4797 C   0  0  0  0  0  0
  -52.1763   -5.9168   16.1379 C   0  0  0  0  0  0
  -53.5769   -4.3592   14.9934 C   0  0  0  0  0  0
  -48.2640   -0.1218   13.6527 C   0  0  0  0  0  0
  -49.5405    0.0825   13.1498 C   0  0  0  0  0  0
  -53.2436   -6.7699   16.2898 C   0  0  0  0  0  0
  -54.6485   -5.2066   15.1465 C   0  0  0  0  0  0
  -54.4888   -6.4143   15.7912 C   0  0  0  0  0  0
  -52.0664   -5.0607   22.0174 H   0  0  0  0  0  0
  -51.1889   -7.7730   21.5997 H   0  0  0  0  0  0
  -51.3997   -7.6185   18.0194 H   0  0  0  0  0  0
  -45.1693    0.2335   21.3883 H   0  0  0  0  0  0
  -44.7297    0.3069   19.4929 H   0  0  0  0  0  0
  -46.1600    0.6936   17.0471 H   0  0  0  0  0  0
  -46.5445   -0.7651   15.7203 H   0  0  0  0  0  0
  -50.7425    1.1423   12.0162 H   0  0  0  0  0  0
  -52.9445   -8.7156   16.2777 H   0  0  0  0  0  0
  -55.3137   -8.1954   15.6801 H   0  0  0  0  0  0
  1 17  1  0  0  0
  1 25  1  0  0  0
  2 22  1  0  0  0
  2 26  1  0  0  0
  3 22  1  0  0  0
  3 27  1  0  0  0
  4 18  1  0  0  0
  4 44  1  0  0  0
  5 19  1  0  0  0
  5 45  1  0  0  0
  6 25  1  0  0  0
  6 29  1  0  0  0
  7 20  1  0  0  0
  7 46  1  0  0  0
  8 21  1  0  0  0
  8 47  1  0  0  0
  9 23  1  0  0  0
  9 48  1  0  0  0
 10 24  1  0  0  0
 10 49  1  0  0  0
 11 30  1  0  0  0
 11 34  1  0  0  0
 12 31  2  0  0  0
 13 35  1  0  0  0
 13 50  1  0  0  0
 14 40  1  0  0  0
 14 51  1  0  0  0
 15 41  1  0  0  0
 15 52  1  0  0  0
 16 43  1  0  0  0
 16 53  1  0  0  0
 17 18  1  0  0  0
 17 26  1  0  0  0
 18 19  1  0  0  0
 19 20  1  0  0  0
 20 25  1  0  0  0
 21 22  1  0  0  0
 23 21  1  0  0  0
 24 23  1  0  0  0
 27 24  1  0  0  0
 27 28  1  0  0  0
 29 30  2  0  0  0
 29 31  1  0  0  0
 30 33  1  0  0  0
 31 32  1  0  0  0
 32 34  2  0  0  0
 32 35  1  0  0  0
 33 37  2  0  0  0
 33 38  1  0  0  0
 34 36  1  0  0  0
 35 39  2  0  0  0
 36 40  2  0  0  0
 37 41  1  0  0  0
 38 42  2  0  0  0
 39 40  1  0  0  0
 41 43  2  0  0  0
 42 43  1  0  0  0
M  END
>  <CHROM.0>
-52.37953249,64.62376292,-62.18248112

>  <CHROM.1>
-60.92589086,173.82992616,67.93620667,88.96860752,-57.89662456,-71.22606773
54.37664156,179.14903979,-62.01401812,-63.90309576,-100.29357717,-2.01315842
-97.29912683,-47.54076784,-33.31825328,175.45607492,-49.87170135,-3.11328371
17.49465283,-2.93514163,-0.85815692,-1.09914097

>  <HEADER>
                                                                          

>  <MASTER>
        0    0    0    0    0    0    0    0   73    0   73    0          

>  <Name>
Rutin.pdb

>  <RI>
-1.05846e+09

>  <Rbt.Current_Directory>
/root/miniconda3/envs/rdock/share/rxdock-2013.1.1_148c5bd1-0/data/ligands/prepped_ligands/Rutin

>  <Rbt.Executable>
rbdock/0.1.0

>  <Rbt.Library>
librxdock.so/0.1.0

>  <Rbt.Parameter_File>
/root/miniconda3/envs/rdock/share/rxdock-2013.1.1_148c5bd1-0/data/scripts/dock.prm

>  <Rbt.Receptor>
def.prm

>  <SCORE>
-36.6818

>  <SCORE.INTER>
-17.1131

>  <SCORE.INTER.CONST>
1

>  <SCORE.INTER.POLAR>
-1.3881

>  <SCORE.INTER.REPUL>
0.191185

>  <SCORE.INTER.ROT>
6

>  <SCORE.INTER.VDW>
-24.7495

>  <SCORE.INTER.norm>
-0.397979

>  <SCORE.INTRA>
-18.7994

>  <SCORE.INTRA.DIHEDRAL>
-27.2101

>  <SCORE.INTRA.DIHEDRAL.0>
50.0277

>  <SCORE.INTRA.POLAR>
-1.93671

>  <SCORE.INTRA.POLAR.0>
-0.00836998

>  <SCORE.INTRA.REPUL>
0

>  <SCORE.INTRA.REPUL.0>
0

>  <SCORE.INTRA.VDW>
1.39046

>  <SCORE.INTRA.VDW.0>
-4.42487

>  <SCORE.INTRA.norm>
-0.437195

>  <SCORE.RESTR>
0.16191

>  <SCORE.RESTR.CAVITY>
0.16191

>  <SCORE.RESTR.norm>
0.00376535

>  <SCORE.SYSTEM>
-0.931201

>  <SCORE.SYSTEM.CONST>
0

>  <SCORE.SYSTEM.DIHEDRAL>
0.254608

>  <SCORE.SYSTEM.VDW>
-1.0585

>  <SCORE.SYSTEM.norm>
-0.0216558

>  <SCORE.heavy>
43

>  <SCORE.norm>
-0.853065

>  <TITLE>
    Rutin_D                                                               

$$$$
