Rutin.pdb
  RxDock  02242110053D
librxdock.so/0.1.0
 53 57  0  0  0  0  0  0  0  0999 V2000
  -50.6380   -1.3692   17.2863 O   0  0  0  0  0  0
  -47.3518    0.1453   18.0023 O   0  0  0  0  0  0
  -45.4343    1.3260   18.8780 O   0  0  0  0  0  0
  -47.7194   -0.1534   15.3156 O   0  0  0  0  0  0
  -49.6223   -0.7824   13.2498 O   0  0  0  0  0  0
  -52.4969   -2.7258   16.6791 O   0  0  0  0  0  0
  -51.6718   -2.6692   13.9709 O   0  0  0  0  0  0
  -46.9662    1.6549   21.3476 O   0  0  0  0  0  0
  -46.6570   -1.0425   22.0987 O   0  0  0  0  0  0
  -44.1812   -1.6405   20.7421 O   0  0  0  0  0  0
  -52.4994   -6.2505   17.8712 O   0  0  0  0  0  0
  -53.9951   -3.9844   14.8906 O   0  0  0  0  0  0
  -54.9683   -6.1820   13.7308 O   0  0  0  0  0  0
  -54.3101  -10.2226   16.0899 O   0  0  0  0  0  0
  -50.9784   -1.3524   20.8136 O   0  0  0  0  0  0
  -48.9082   -2.8585   21.8247 O   0  0  0  0  0  0
  -49.2636   -1.0154   17.0184 C   0  0  0  0  0  0
  -49.1017   -0.4090   15.6069 C   0  0  0  0  0  0
  -49.6842   -1.3738   14.5560 C   0  0  0  0  0  0
  -51.1387   -1.7277   14.9137 C   0  0  0  0  0  0
  -47.2182    0.6113   20.3938 C   0  0  0  0  0  0
  -46.8562    1.0881   18.9732 C   0  0  0  0  0  0
  -46.4037   -0.6506   20.7410 C   0  0  0  0  0  0
  -44.8944   -0.4130   20.5305 C   0  0  0  0  0  0
  -51.1613   -2.3193   16.3356 C   0  0  0  0  0  0
  -48.7801   -0.0020   18.0685 C   0  0  0  0  0  0
  -44.6494    0.1379   19.1085 C   0  0  0  0  0  0
  -43.1603    0.4695   18.9206 C   0  0  0  0  0  0
  -52.7138   -4.1011   16.7633 C   0  0  0  0  0  0
  -52.2106   -4.9077   17.7597 C   0  0  0  0  0  0
  -53.5164   -4.7112   15.7602 C   0  0  0  0  0  0
  -53.7382   -6.1422   15.7958 C   0  0  0  0  0  0
  -51.3152   -4.3940   18.8266 C   0  0  0  0  0  0
  -53.2087   -6.8456   16.8789 C   0  0  0  0  0  0
  -54.4555   -6.8339   14.8057 C   0  0  0  0  0  0
  -53.4103   -8.2118   16.9605 C   0  0  0  0  0  0
  -51.5442   -3.1220   19.3362 C   0  0  0  0  0  0
  -50.2703   -5.1406   19.3546 C   0  0  0  0  0  0
  -54.6438   -8.1862   14.9116 C   0  0  0  0  0  0
  -54.1216   -8.8825   15.9916 C   0  0  0  0  0  0
  -50.7459   -2.6053   20.3291 C   0  0  0  0  0  0
  -49.4718   -4.6304   20.3506 C   0  0  0  0  0  0
  -49.7020   -3.3630   20.8408 C   0  0  0  0  0  0
  -47.1623   -0.9836   15.4308 H   0  0  0  0  0  0
  -49.8911   -1.4405   12.5371 H   0  0  0  0  0  0
  -51.6640   -2.2954   13.0369 H   0  0  0  0  0  0
  -46.0149    1.9777   21.2944 H   0  0  0  0  0  0
  -46.2038   -1.9135   22.3185 H   0  0  0  0  0  0
  -44.2102   -1.9210   21.7072 H   0  0  0  0  0  0
  -55.1333   -5.2122   13.9242 H   0  0  0  0  0  0
  -55.2152  -10.4935   15.7424 H   0  0  0  0  0  0
  -50.8162   -1.3053   21.8057 H   0  0  0  0  0  0
  -48.8470   -1.8566   21.7706 H   0  0  0  0  0  0
  1 17  1  0  0  0
  1 25  1  0  0  0
  2 22  1  0  0  0
  2 26  1  0  0  0
  3 22  1  0  0  0
  3 27  1  0  0  0
  4 18  1  0  0  0
  4 44  1  0  0  0
  5 19  1  0  0  0
  5 45  1  0  0  0
  6 25  1  0  0  0
  6 29  1  0  0  0
  7 20  1  0  0  0
  7 46  1  0  0  0
  8 21  1  0  0  0
  8 47  1  0  0  0
  9 23  1  0  0  0
  9 48  1  0  0  0
 10 24  1  0  0  0
 10 49  1  0  0  0
 11 30  1  0  0  0
 11 34  1  0  0  0
 12 31  2  0  0  0
 13 35  1  0  0  0
 13 50  1  0  0  0
 14 40  1  0  0  0
 14 51  1  0  0  0
 15 41  1  0  0  0
 15 52  1  0  0  0
 16 43  1  0  0  0
 16 53  1  0  0  0
 17 18  1  0  0  0
 17 26  1  0  0  0
 18 19  1  0  0  0
 19 20  1  0  0  0
 20 25  1  0  0  0
 21 22  1  0  0  0
 23 21  1  0  0  0
 24 23  1  0  0  0
 27 24  1  0  0  0
 27 28  1  0  0  0
 29 30  2  0  0  0
 29 31  1  0  0  0
 30 33  1  0  0  0
 31 32  1  0  0  0
 32 34  2  0  0  0
 32 35  1  0  0  0
 33 37  2  0  0  0
 33 38  1  0  0  0
 34 36  1  0  0  0
 35 39  2  0  0  0
 36 40  2  0  0  0
 37 41  1  0  0  0
 38 42  2  0  0  0
 39 40  1  0  0  0
 41 43  2  0  0  0
 42 43  1  0  0  0
M  END
>  <CHROM.0>
169.65247160,63.83016792,-177.21889288

>  <CHROM.1>
-176.22798018,-179.96056963,54.98308180,172.89802221,-127.20666977,70.48469354
-60.08715066,-55.41665992,174.56399536,-68.28233725,-25.04260513,144.48000139
142.60819409,-29.18005201,167.59046672,-142.16264614,-50.04032795,-2.82166780
17.74470985,-0.01183002,-0.79865677,-1.03768469

>  <HEADER>
                                                                          

>  <MASTER>
        0    0    0    0    0    0    0    0   73    0   73    0          

>  <Name>
Rutin.pdb

>  <RI>
-6.89847e+08

>  <Rbt.Current_Directory>
/root/miniconda3/envs/rdock/share/rxdock-2013.1.1_148c5bd1-0/data/ligands/prepped_ligands/Rutin

>  <Rbt.Executable>
rbdock/0.1.0

>  <Rbt.Library>
librxdock.so/0.1.0

>  <Rbt.Parameter_File>
/root/miniconda3/envs/rdock/share/rxdock-2013.1.1_148c5bd1-0/data/scripts/dock.prm

>  <Rbt.Receptor>
def.prm

>  <SCORE>
-32.4891

>  <SCORE.INTER>
-17.3906

>  <SCORE.INTER.CONST>
1

>  <SCORE.INTER.POLAR>
-1.81139

>  <SCORE.INTER.REPUL>
0.0131678

>  <SCORE.INTER.ROT>
6

>  <SCORE.INTER.VDW>
-22.6977

>  <SCORE.INTER.norm>
-0.404431

>  <SCORE.INTRA>
-14.8111

>  <SCORE.INTRA.DIHEDRAL>
-30.0685

>  <SCORE.INTRA.DIHEDRAL.0>
50.0277

>  <SCORE.INTRA.POLAR>
-0.0537362

>  <SCORE.INTRA.POLAR.0>
-0.00836998

>  <SCORE.INTRA.REPUL>
0

>  <SCORE.INTRA.REPUL.0>
0

>  <SCORE.INTRA.VDW>
0.40584

>  <SCORE.INTRA.VDW.0>
-4.42487

>  <SCORE.INTRA.norm>
-0.344444

>  <SCORE.RESTR>
0.547018

>  <SCORE.RESTR.CAVITY>
0.547018

>  <SCORE.RESTR.norm>
0.0127213

>  <SCORE.SYSTEM>
-0.83448

>  <SCORE.SYSTEM.CONST>
0

>  <SCORE.SYSTEM.DIHEDRAL>
0.354198

>  <SCORE.SYSTEM.POLAR>
-0.00824068

>  <SCORE.SYSTEM.VDW>
-0.98356

>  <SCORE.SYSTEM.norm>
-0.0194065

>  <SCORE.heavy>
43

>  <SCORE.norm>
-0.755561

>  <TITLE>
    Rutin_D                                                               

$$$$
Rutin.pdb
  RxDock  02242110053D
librxdock.so/0.1.0
 53 57  0  0  0  0  0  0  0  0999 V2000
  -48.6911   -3.5612   17.3200 O   0  0  0  0  0  0
  -46.2354   -1.9828   18.6362 O   0  0  0  0  0  0
  -44.0552   -1.7038   19.6397 O   0  0  0  0  0  0
  -48.7103   -0.5760   19.5491 O   0  0  0  0  0  0
  -50.5432   -2.3430   20.8915 O   0  0  0  0  0  0
  -50.2468   -5.3429   17.0557 O   0  0  0  0  0  0
  -51.7528   -4.3722   19.2484 O   0  0  0  0  0  0
  -43.6702    0.5336   17.7959 O   0  0  0  0  0  0
  -45.4250    2.2228   19.2112 O   0  0  0  0  0  0
  -45.1819    1.0723   21.8464 O   0  0  0  0  0  0
  -52.9288   -4.9649   14.5045 O   0  0  0  0  0  0
  -51.7456   -7.5009   17.4071 O   0  0  0  0  0  0
  -53.9517   -8.9509   17.0163 O   0  0  0  0  0  0
  -56.7816   -7.4989   13.5222 O   0  0  0  0  0  0
  -48.5142   -2.2677   12.7478 O   0  0  0  0  0  0
  -49.1971    0.0887   13.9956 O   0  0  0  0  0  0
  -48.4867   -2.1852   17.7085 C   0  0  0  0  0  0
  -48.8222   -1.9640   19.2001 C   0  0  0  0  0  0
  -50.2522   -2.4590   19.4908 C   0  0  0  0  0  0
  -50.4082   -3.9199   19.0322 C   0  0  0  0  0  0
  -44.9626    0.0520   18.1959 C   0  0  0  0  0  0
  -44.9002   -1.4592   18.4935 C   0  0  0  0  0  0
  -45.4613    0.8066   19.4442 C   0  0  0  0  0  0
  -44.6147    0.4513   20.6834 C   0  0  0  0  0  0
  -50.0468   -4.0030   17.5372 C   0  0  0  0  0  0
  -47.0237   -1.7903   17.4498 C   0  0  0  0  0  0
  -44.5497   -1.0835   20.8445 C   0  0  0  0  0  0
  -43.6294   -1.4521   22.0191 C   0  0  0  0  0  0
  -51.3955   -5.5522   16.2926 C   0  0  0  0  0  0
  -51.8356   -4.7032   15.3015 C   0  0  0  0  0  0
  -52.1587   -6.7251   16.5462 C   0  0  0  0  0  0
  -53.3752   -6.9614   15.7962 C   0  0  0  0  0  0
  -51.1537   -3.4227   14.9864 C   0  0  0  0  0  0
  -53.6948   -6.0483   14.7900 C   0  0  0  0  0  0
  -54.2249   -8.0545   16.0338 C   0  0  0  0  0  0
  -54.8397   -6.2446   14.0388 C   0  0  0  0  0  0
  -50.1542   -3.4176   14.0217 C   0  0  0  0  0  0
  -51.4884   -2.2227   15.5996 C   0  0  0  0  0  0
  -55.3507   -8.2279   15.2738 C   0  0  0  0  0  0
  -55.6637   -7.3225   14.2707 C   0  0  0  0  0  0
  -49.4983   -2.2554   13.6912 C   0  0  0  0  0  0
  -50.8388   -1.0569   15.2696 C   0  0  0  0  0  0
  -49.8413   -1.0661   14.3185 C   0  0  0  0  0  0
  -49.3603   -0.0141   19.0250 H   0  0  0  0  0  0
  -49.9289   -2.9203   21.4417 H   0  0  0  0  0  0
  -52.0020   -4.3254   20.2219 H   0  0  0  0  0  0
  -43.6682    1.5341   17.6920 H   0  0  0  0  0  0
  -45.9848    2.4769   18.4147 H   0  0  0  0  0  0
  -44.6341    0.8838   22.6681 H   0  0  0  0  0  0
  -53.0178   -8.8499   17.3668 H   0  0  0  0  0  0
  -56.6156   -7.2764   12.5546 H   0  0  0  0  0  0
  -48.3780   -3.1904   12.3698 H   0  0  0  0  0  0
  -48.4426   -0.0782   13.3527 H   0  0  0  0  0  0
  1 17  1  0  0  0
  1 25  1  0  0  0
  2 22  1  0  0  0
  2 26  1  0  0  0
  3 22  1  0  0  0
  3 27  1  0  0  0
  4 18  1  0  0  0
  4 44  1  0  0  0
  5 19  1  0  0  0
  5 45  1  0  0  0
  6 25  1  0  0  0
  6 29  1  0  0  0
  7 20  1  0  0  0
  7 46  1  0  0  0
  8 21  1  0  0  0
  8 47  1  0  0  0
  9 23  1  0  0  0
  9 48  1  0  0  0
 10 24  1  0  0  0
 10 49  1  0  0  0
 11 30  1  0  0  0
 11 34  1  0  0  0
 12 31  2  0  0  0
 13 35  1  0  0  0
 13 50  1  0  0  0
 14 40  1  0  0  0
 14 51  1  0  0  0
 15 41  1  0  0  0
 15 52  1  0  0  0
 16 43  1  0  0  0
 16 53  1  0  0  0
 17 18  1  0  0  0
 17 26  1  0  0  0
 18 19  1  0  0  0
 19 20  1  0  0  0
 20 25  1  0  0  0
 21 22  1  0  0  0
 23 21  1  0  0  0
 24 23  1  0  0  0
 27 24  1  0  0  0
 27 28  1  0  0  0
 29 30  2  0  0  0
 29 31  1  0  0  0
 30 33  1  0  0  0
 31 32  1  0  0  0
 32 34  2  0  0  0
 32 35  1  0  0  0
 33 37  2  0  0  0
 33 38  1  0  0  0
 34 36  1  0  0  0
 35 39  2  0  0  0
 36 40  2  0  0  0
 37 41  1  0  0  0
 38 42  2  0  0  0
 39 40  1  0  0  0
 41 43  2  0  0  0
 42 43  1  0  0  0
M  END
>  <CHROM.0>
57.48776654,64.12879089,58.97600558

>  <CHROM.1>
-176.63500940,-172.26282632,61.77143060,-62.40835898,-133.64445190,43.77909610
-60.16734962,-173.96857218,58.11400404,-178.13977952,-12.98117455,39.93029820
0.55819905,-5.18762677,-93.60848826,-88.19751817,-49.57069999,-3.16113409
17.21828774,0.10939776,0.73212473,2.00186632

>  <HEADER>
                                                                          

>  <MASTER>
        0    0    0    0    0    0    0    0   73    0   73    0          

>  <Name>
Rutin.pdb

>  <RI>
-6.89847e+08

>  <Rbt.Current_Directory>
/root/miniconda3/envs/rdock/share/rxdock-2013.1.1_148c5bd1-0/data/ligands/prepped_ligands/Rutin

>  <Rbt.Executable>
rbdock/0.1.0

>  <Rbt.Library>
librxdock.so/0.1.0

>  <Rbt.Parameter_File>
/root/miniconda3/envs/rdock/share/rxdock-2013.1.1_148c5bd1-0/data/scripts/dock.prm

>  <Rbt.Receptor>
def.prm

>  <SCORE>
-29.6925

>  <SCORE.INTER>
-14.9018

>  <SCORE.INTER.CONST>
1

>  <SCORE.INTER.POLAR>
-1.14066

>  <SCORE.INTER.REPUL>
0.0150887

>  <SCORE.INTER.ROT>
6

>  <SCORE.INTER.VDW>
-22.499

>  <SCORE.INTER.norm>
-0.346554

>  <SCORE.INTRA>
-13.7985

>  <SCORE.INTRA.DIHEDRAL>
-30.5548

>  <SCORE.INTRA.DIHEDRAL.0>
50.0277

>  <SCORE.INTRA.POLAR>
-0.0936168

>  <SCORE.INTRA.POLAR.0>
-0.00836998

>  <SCORE.INTRA.REPUL>
0

>  <SCORE.INTRA.REPUL.0>
0

>  <SCORE.INTRA.VDW>
1.79715

>  <SCORE.INTRA.VDW.0>
-4.42487

>  <SCORE.INTRA.norm>
-0.320896

>  <SCORE.RESTR>
0

>  <SCORE.RESTR.CAVITY>
0

>  <SCORE.RESTR.norm>
0

>  <SCORE.SYSTEM>
-0.992114

>  <SCORE.SYSTEM.CONST>
0

>  <SCORE.SYSTEM.DIHEDRAL>
0.104819

>  <SCORE.SYSTEM.VDW>
-1.04452

>  <SCORE.SYSTEM.norm>
-0.0230724

>  <SCORE.heavy>
43

>  <SCORE.norm>
-0.690522

>  <TITLE>
    Rutin_D                                                               

$$$$
Rutin.pdb
  RxDock  02242110053D
librxdock.so/0.1.0
 53 57  0  0  0  0  0  0  0  0999 V2000
  -48.6495   -1.2542   19.4842 O   0  0  0  0  0  0
  -49.3910   -3.5550   20.9978 O   0  0  0  0  0  0
  -50.3551   -5.6874   21.5986 O   0  0  0  0  0  0
  -47.2255   -0.3682   22.8110 O   0  0  0  0  0  0
  -46.7118    2.0148   21.2808 O   0  0  0  0  0  0
  -48.2557   -0.3652   17.3119 O   0  0  0  0  0  0
  -46.6363    1.6739   18.4245 O   0  0  0  0  0  0
  -52.9441   -4.3273   21.6283 O   0  0  0  0  0  0
  -53.0752   -4.1522   18.8197 O   0  0  0  0  0  0
  -51.4430   -6.4260   18.1177 O   0  0  0  0  0  0
  -48.6547   -3.6620   15.6338 O   0  0  0  0  0  0
  -50.8526   -0.8559   17.5184 O   0  0  0  0  0  0
  -53.0713   -2.2067   16.9063 O   0  0  0  0  0  0
  -52.4331   -6.2975   14.6295 O   0  0  0  0  0  0
  -43.5591   -2.5069   17.8002 O   0  0  0  0  0  0
  -42.5495   -2.1003   15.2721 O   0  0  0  0  0  0
  -48.1248   -1.4736   20.8118 C   0  0  0  0  0  0
  -47.8378   -0.1380   21.5331 C   0  0  0  0  0  0
  -46.9124    0.7348   20.6634 C   0  0  0  0  0  0
  -47.5177    0.9083   19.2590 C   0  0  0  0  0  0
  -51.8102   -3.8531   20.8854 C   0  0  0  0  0  0
  -50.5020   -4.2500   21.5976 C   0  0  0  0  0  0
  -51.8180   -4.4287   19.4554 C   0  0  0  0  0  0
  -51.5523   -5.9479   19.4666 C   0  0  0  0  0  0
  -47.7533   -0.4881   18.6535 C   0  0  0  0  0  0
  -49.1334   -2.2920   21.6340 C   0  0  0  0  0  0
  -50.2672   -6.2439   20.2706 C   0  0  0  0  0  0
  -50.0452   -7.7616   20.3704 C   0  0  0  0  0  0
  -48.8152   -1.5183   16.7615 C   0  0  0  0  0  0
  -48.0980   -2.4919   16.1024 C   0  0  0  0  0  0
  -50.2180   -1.7083   16.8984 C   0  0  0  0  0  0
  -50.8405   -2.8778   16.3126 C   0  0  0  0  0  0
  -46.6398   -2.3756   15.8496 C   0  0  0  0  0  0
  -50.0017   -3.8129   15.7042 C   0  0  0  0  0  0
  -52.2266   -3.1049   16.3379 C   0  0  0  0  0  0
  -50.5530   -4.9521   15.1458 C   0  0  0  0  0  0
  -45.7643   -2.4923   16.9219 C   0  0  0  0  0  0
  -46.1106   -2.1775   14.5813 C   0  0  0  0  0  0
  -52.7470   -4.2424   15.7807 C   0  0  0  0  0  0
  -51.9111   -5.1732   15.1815 C   0  0  0  0  0  0
  -44.4053   -2.3979   16.7369 C   0  0  0  0  0  0
  -44.7522   -2.0869   14.3901 C   0  0  0  0  0  0
  -43.8939   -2.1936   15.4632 C   0  0  0  0  0  0
  -46.4286   -0.9775   22.7296 H   0  0  0  0  0  0
  -46.0641    2.5774   20.7542 H   0  0  0  0  0  0
  -45.7504    1.2118   18.3077 H   0  0  0  0  0  0
  -52.8987   -5.3221   21.7704 H   0  0  0  0  0  0
  -53.2333   -3.1620   18.7372 H   0  0  0  0  0  0
  -52.3075   -6.3144   17.6167 H   0  0  0  0  0  0
  -52.5812   -1.5290   17.4592 H   0  0  0  0  0  0
  -51.7203   -6.9861   14.4534 H   0  0  0  0  0  0
  -42.7886   -3.1213   17.5963 H   0  0  0  0  0  0
  -42.0527   -2.7886   15.8104 H   0  0  0  0  0  0
  1 17  1  0  0  0
  1 25  1  0  0  0
  2 22  1  0  0  0
  2 26  1  0  0  0
  3 22  1  0  0  0
  3 27  1  0  0  0
  4 18  1  0  0  0
  4 44  1  0  0  0
  5 19  1  0  0  0
  5 45  1  0  0  0
  6 25  1  0  0  0
  6 29  1  0  0  0
  7 20  1  0  0  0
  7 46  1  0  0  0
  8 21  1  0  0  0
  8 47  1  0  0  0
  9 23  1  0  0  0
  9 48  1  0  0  0
 10 24  1  0  0  0
 10 49  1  0  0  0
 11 30  1  0  0  0
 11 34  1  0  0  0
 12 31  2  0  0  0
 13 35  1  0  0  0
 13 50  1  0  0  0
 14 40  1  0  0  0
 14 51  1  0  0  0
 15 41  1  0  0  0
 15 52  1  0  0  0
 16 43  1  0  0  0
 16 53  1  0  0  0
 17 18  1  0  0  0
 17 26  1  0  0  0
 18 19  1  0  0  0
 19 20  1  0  0  0
 20 25  1  0  0  0
 21 22  1  0  0  0
 23 21  1  0  0  0
 24 23  1  0  0  0
 27 24  1  0  0  0
 27 28  1  0  0  0
 29 30  2  0  0  0
 29 31  1  0  0  0
 30 33  1  0  0  0
 31 32  1  0  0  0
 32 34  2  0  0  0
 32 35  1  0  0  0
 33 37  2  0  0  0
 33 38  1  0  0  0
 34 36  1  0  0  0
 35 39  2  0  0  0
 36 40  2  0  0  0
 37 41  1  0  0  0
 38 42  2  0  0  0
 39 40  1  0  0  0
 41 43  2  0  0  0
 42 43  1  0  0  0
M  END
>  <CHROM.0>
47.27769490,178.58153898,168.98490557

>  <CHROM.1>
-146.10491451,-169.54765559,51.39022911,176.49446074,-42.07924747,-86.69637482
61.31890412,-56.35013462,61.65507481,-64.08255227,-13.27985354,15.16263399
133.93816528,42.35516593,59.00000123,-108.22980480,-48.99040455,-2.75876882
18.25258256,0.09662368,0.58427273,1.19998800

>  <HEADER>
                                                                          

>  <MASTER>
        0    0    0    0    0    0    0    0   73    0   73    0          

>  <Name>
Rutin.pdb

>  <RI>
-6.89847e+08

>  <Rbt.Current_Directory>
/root/miniconda3/envs/rdock/share/rxdock-2013.1.1_148c5bd1-0/data/ligands/prepped_ligands/Rutin

>  <Rbt.Executable>
rbdock/0.1.0

>  <Rbt.Library>
librxdock.so/0.1.0

>  <Rbt.Parameter_File>
/root/miniconda3/envs/rdock/share/rxdock-2013.1.1_148c5bd1-0/data/scripts/dock.prm

>  <Rbt.Receptor>
def.prm

>  <SCORE>
-20.8533

>  <SCORE.INTER>
-4.74694

>  <SCORE.INTER.CONST>
1

>  <SCORE.INTER.POLAR>
-1.27605

>  <SCORE.INTER.REPUL>
0.285351

>  <SCORE.INTER.ROT>
6

>  <SCORE.INTER.VDW>
-13.2351

>  <SCORE.INTER.norm>
-0.110394

>  <SCORE.INTRA>
-16.716

>  <SCORE.INTRA.DIHEDRAL>
-28.7213

>  <SCORE.INTRA.DIHEDRAL.0>
50.0277

>  <SCORE.INTRA.POLAR>
-0.103554

>  <SCORE.INTRA.POLAR.0>
-0.00836998

>  <SCORE.INTRA.REPUL>
0

>  <SCORE.INTRA.REPUL.0>
0

>  <SCORE.INTRA.VDW>
-2.00327

>  <SCORE.INTRA.VDW.0>
-4.42487

>  <SCORE.INTRA.norm>
-0.388744

>  <SCORE.RESTR>
1.26329

>  <SCORE.RESTR.CAVITY>
1.26329

>  <SCORE.RESTR.norm>
0.0293787

>  <SCORE.SYSTEM>
-0.653704

>  <SCORE.SYSTEM.CONST>
0

>  <SCORE.SYSTEM.DIHEDRAL>
0.703289

>  <SCORE.SYSTEM.VDW>
-1.00535

>  <SCORE.SYSTEM.norm>
-0.0152024

>  <SCORE.heavy>
43

>  <SCORE.norm>
-0.484961

>  <TITLE>
    Rutin_D                                                               

$$$$
Rutin.pdb
  RxDock  02242110053D
librxdock.so/0.1.0
 53 57  0  0  0  0  0  0  0  0999 V2000
  -50.1314   -4.9355   18.6618 O   0  0  0  0  0  0
  -49.9928   -2.5679   19.9307 O   0  0  0  0  0  0
  -50.1317   -0.1571   20.0132 O   0  0  0  0  0  0
  -51.2569   -6.1846   21.9865 O   0  0  0  0  0  0
  -50.7584   -8.6337   20.5590 O   0  0  0  0  0  0
  -50.0617   -5.9805   16.5247 O   0  0  0  0  0  0
  -50.8319   -8.4444   17.6886 O   0  0  0  0  0  0
  -48.0360   -0.2664   22.0502 O   0  0  0  0  0  0
  -46.0191   -0.8887   20.1845 O   0  0  0  0  0  0
  -47.1615    0.3099   17.8211 O   0  0  0  0  0  0
  -51.1819   -2.8117   14.9283 O   0  0  0  0  0  0
  -47.7957   -4.6871   16.0564 O   0  0  0  0  0  0
  -46.3614   -2.7376   14.9320 O   0  0  0  0  0  0
  -48.8355    0.8277   13.0632 O   0  0  0  0  0  0
  -54.1255   -7.9257   15.2311 O   0  0  0  0  0  0
  -56.2881   -6.4048   15.9965 O   0  0  0  0  0  0
  -50.7581   -4.8881   19.9622 C   0  0  0  0  0  0
  -50.5474   -6.2069   20.7387 C   0  0  0  0  0  0
  -51.0323   -7.3957   19.8865 C   0  0  0  0  0  0
  -50.3453   -7.3726   18.5095 C   0  0  0  0  0  0
  -48.2511   -1.3037   21.0806 C   0  0  0  0  0  0
  -49.7416   -1.3709   20.6930 C   0  0  0  0  0  0
  -47.3979   -1.0555   19.8209 C   0  0  0  0  0  0
  -47.8959    0.1827   19.0477 C   0  0  0  0  0  0
  -50.6317   -6.0132   17.8443 C   0  0  0  0  0  0
  -50.1735   -3.7194   20.7719 C   0  0  0  0  0  0
  -49.4116    0.0526   18.7809 C   0  0  0  0  0  0
  -49.9377    1.3243   18.0963 C   0  0  0  0  0  0
  -50.0611   -4.7381   15.8906 C   0  0  0  0  0  0
  -51.1961   -4.0734   15.4821 C   0  0  0  0  0  0
  -48.8067   -4.1094   15.6592 C   0  0  0  0  0  0
  -48.7631   -2.8333   14.9750 C   0  0  0  0  0  0
  -52.5549   -4.6554   15.6194 C   0  0  0  0  0  0
  -49.9834   -2.2409   14.6461 C   0  0  0  0  0  0
  -47.5649   -2.1801   14.6418 C   0  0  0  0  0  0
  -49.9879   -1.0146   14.0060 C   0  0  0  0  0  0
  -52.7300   -6.0105   15.3684 C   0  0  0  0  0  0
  -53.6567   -3.9067   16.0110 C   0  0  0  0  0  0
  -47.5968   -0.9651   14.0109 C   0  0  0  0  0  0
  -48.8106   -0.3755   13.6900 C   0  0  0  0  0  0
  -53.9680   -6.5962   15.4882 C   0  0  0  0  0  0
  -54.8960   -4.4883   16.1367 C   0  0  0  0  0  0
  -55.0596   -5.8315   15.8746 C   0  0  0  0  0  0
  -50.8799   -5.4892   22.6086 H   0  0  0  0  0  0
  -51.2269   -8.6780   21.4489 H   0  0  0  0  0  0
  -51.8125   -8.3374   17.4914 H   0  0  0  0  0  0
  -47.0600   -0.1714   22.2744 H   0  0  0  0  0  0
  -45.6673   -1.6990   20.6661 H   0  0  0  0  0  0
  -47.4692    1.1056   17.2890 H   0  0  0  0  0  0
  -46.1334   -2.6521   15.9047 H   0  0  0  0  0  0
  -49.6397    0.9139   12.4639 H   0  0  0  0  0  0
  -53.2540   -8.4224   15.3127 H   0  0  0  0  0  0
  -56.6759   -6.6384   15.0991 H   0  0  0  0  0  0
  1 17  1  0  0  0
  1 25  1  0  0  0
  2 22  1  0  0  0
  2 26  1  0  0  0
  3 22  1  0  0  0
  3 27  1  0  0  0
  4 18  1  0  0  0
  4 44  1  0  0  0
  5 19  1  0  0  0
  5 45  1  0  0  0
  6 25  1  0  0  0
  6 29  1  0  0  0
  7 20  1  0  0  0
  7 46  1  0  0  0
  8 21  1  0  0  0
  8 47  1  0  0  0
  9 23  1  0  0  0
  9 48  1  0  0  0
 10 24  1  0  0  0
 10 49  1  0  0  0
 11 30  1  0  0  0
 11 34  1  0  0  0
 12 31  2  0  0  0
 13 35  1  0  0  0
 13 50  1  0  0  0
 14 40  1  0  0  0
 14 51  1  0  0  0
 15 41  1  0  0  0
 15 52  1  0  0  0
 16 43  1  0  0  0
 16 53  1  0  0  0
 17 18  1  0  0  0
 17 26  1  0  0  0
 18 19  1  0  0  0
 19 20  1  0  0  0
 20 25  1  0  0  0
 21 22  1  0  0  0
 23 21  1  0  0  0
 24 23  1  0  0  0
 27 24  1  0  0  0
 27 28  1  0  0  0
 29 30  2  0  0  0
 29 31  1  0  0  0
 30 33  1  0  0  0
 31 32  1  0  0  0
 32 34  2  0  0  0
 32 35  1  0  0  0
 33 37  2  0  0  0
 33 38  1  0  0  0
 34 36  1  0  0  0
 35 39  2  0  0  0
 36 40  2  0  0  0
 37 41  1  0  0  0
 38 42  2  0  0  0
 39 40  1  0  0  0
 41 43  2  0  0  0
 42 43  1  0  0  0
M  END
>  <CHROM.0>
-56.36801091,-63.95740683,66.36142373

>  <CHROM.1>
-154.08113156,166.72460983,-65.77351775,60.20722016,-47.24346623,-66.96597155
63.83194302,-176.62139093,58.88960118,179.50716041,-76.26329067,-30.93123655
21.84588891,-71.34519129,40.50722960,141.44782283,-50.21237088,-3.57438732
17.49378318,-2.94389566,-0.90455824,-1.19394121

>  <HEADER>
                                                                          

>  <MASTER>
        0    0    0    0    0    0    0    0   73    0   73    0          

>  <Name>
Rutin.pdb

>  <RI>
-6.89847e+08

>  <Rbt.Current_Directory>
/root/miniconda3/envs/rdock/share/rxdock-2013.1.1_148c5bd1-0/data/ligands/prepped_ligands/Rutin

>  <Rbt.Executable>
rbdock/0.1.0

>  <Rbt.Library>
librxdock.so/0.1.0

>  <Rbt.Parameter_File>
/root/miniconda3/envs/rdock/share/rxdock-2013.1.1_148c5bd1-0/data/scripts/dock.prm

>  <Rbt.Receptor>
def.prm

>  <SCORE>
-31.4182

>  <SCORE.INTER>
-17.8098

>  <SCORE.INTER.CONST>
1

>  <SCORE.INTER.POLAR>
-2.06043

>  <SCORE.INTER.REPUL>
0.119602

>  <SCORE.INTER.ROT>
6

>  <SCORE.INTER.VDW>
-22.8024

>  <SCORE.INTER.norm>
-0.414182

>  <SCORE.INTRA>
-13.0619

>  <SCORE.INTRA.DIHEDRAL>
-27.1197

>  <SCORE.INTRA.DIHEDRAL.0>
50.0277

>  <SCORE.INTRA.POLAR>
0.00836998

>  <SCORE.INTRA.POLAR.0>
-0.00836998

>  <SCORE.INTRA.REPUL>
0.00312577

>  <SCORE.INTRA.REPUL.0>
0

>  <SCORE.INTRA.VDW>
0.45392

>  <SCORE.INTRA.VDW.0>
-4.42487

>  <SCORE.INTRA.norm>
-0.303764

>  <SCORE.RESTR>
0.420112

>  <SCORE.RESTR.CAVITY>
0.420112

>  <SCORE.RESTR.norm>
0.00977004

>  <SCORE.SYSTEM>
-0.966624

>  <SCORE.SYSTEM.CONST>
0

>  <SCORE.SYSTEM.DIHEDRAL>
0.200821

>  <SCORE.SYSTEM.POLAR>
-0.0129474

>  <SCORE.SYSTEM.VDW>
-1.02301

>  <SCORE.SYSTEM.norm>
-0.0224796

>  <SCORE.heavy>
43

>  <SCORE.norm>
-0.730656

>  <TITLE>
    Rutin_D                                                               

$$$$
Rutin.pdb
  RxDock  02242110053D
librxdock.so/0.1.0
 53 57  0  0  0  0  0  0  0  0999 V2000
  -50.6498   -2.7619   18.1474 O   0  0  0  0  0  0
  -49.5588   -1.6795   20.2873 O   0  0  0  0  0  0
  -49.2065    0.6822   20.6560 O   0  0  0  0  0  0
  -52.9398   -3.6128   20.9602 O   0  0  0  0  0  0
  -52.6760   -6.1415   19.6109 O   0  0  0  0  0  0
  -50.2380   -3.8408   16.0664 O   0  0  0  0  0  0
  -51.8864   -6.0068   16.8471 O   0  0  0  0  0  0
  -46.8279   -0.0741   22.1803 O   0  0  0  0  0  0
  -45.3583   -0.7524   19.8746 O   0  0  0  0  0  0
  -46.6679    0.9517   17.9490 O   0  0  0  0  0  0
  -46.7515   -4.2288   17.3066 O   0  0  0  0  0  0
  -48.9986   -1.7005   15.1123 O   0  0  0  0  0  0
  -46.9376   -0.0103   14.9799 O   0  0  0  0  0  0
  -42.9348   -1.4757   17.0183 O   0  0  0  0  0  0
  -49.8009   -6.6426   21.0685 O   0  0  0  0  0  0
  -50.1246   -9.0025   19.6895 O   0  0  0  0  0  0
  -51.5867   -2.5294   19.2217 C   0  0  0  0  0  0
  -51.9348   -3.8405   19.9607 C   0  0  0  0  0  0
  -52.4357   -4.8903   18.9500 C   0  0  0  0  0  0
  -51.4039   -5.0714   17.8225 C   0  0  0  0  0  0
  -47.4195   -0.9085   21.1722 C   0  0  0  0  0  0
  -48.9402   -0.6655   21.1036 C   0  0  0  0  0  0
  -46.7864   -0.6287   19.7949 C   0  0  0  0  0  0
  -47.1693    0.7745   19.2821 C   0  0  0  0  0  0
  -51.1474   -3.6995   17.1710 C   0  0  0  0  0  0
  -50.9862   -1.5248   20.2185 C   0  0  0  0  0  0
  -48.7039    0.9431   19.3293 C   0  0  0  0  0  0
  -49.0907    2.3710   18.9122 C   0  0  0  0  0  0
  -48.8928   -3.6037   16.3490 C   0  0  0  0  0  0
  -48.0981   -4.4384   17.1028 C   0  0  0  0  0  0
  -48.2977   -2.4274   15.8153 C   0  0  0  0  0  0
  -46.9116   -2.1304   16.1130 C   0  0  0  0  0  0
  -48.6223   -5.6635   17.7572 C   0  0  0  0  0  0
  -46.1994   -3.0742   16.8549 C   0  0  0  0  0  0
  -46.2685   -0.9561   15.6879 C   0  0  0  0  0  0
  -44.8684   -2.8377   17.1485 C   0  0  0  0  0  0
  -48.9729   -5.6060   19.1002 C   0  0  0  0  0  0
  -48.7994   -6.8612   17.0773 C   0  0  0  0  0  0
  -44.9490   -0.7474   15.9890 C   0  0  0  0  0  0
  -44.2415   -1.6891   16.7215 C   0  0  0  0  0  0
  -49.4686   -6.7125   19.7482 C   0  0  0  0  0  0
  -49.2990   -7.9694   17.7194 C   0  0  0  0  0  0
  -49.6332   -7.9032   19.0549 C   0  0  0  0  0  0
  -52.6399   -2.9235   21.6293 H   0  0  0  0  0  0
  -53.2822   -6.0246   20.4060 H   0  0  0  0  0  0
  -51.2095   -6.1566   16.1181 H   0  0  0  0  0  0
  -46.9645    0.9011   21.9750 H   0  0  0  0  0  0
  -44.9299   -0.6331   18.9721 H   0  0  0  0  0  0
  -46.8236    1.8886   17.6190 H   0  0  0  0  0  0
  -47.9295   -0.1544   15.0060 H   0  0  0  0  0  0
  -42.8291   -0.7706   17.7289 H   0  0  0  0  0  0
  -49.4105   -5.8234   21.5037 H   0  0  0  0  0  0
  -50.2325   -9.7756   19.0560 H   0  0  0  0  0  0
  1 17  1  0  0  0
  1 25  1  0  0  0
  2 22  1  0  0  0
  2 26  1  0  0  0
  3 22  1  0  0  0
  3 27  1  0  0  0
  4 18  1  0  0  0
  4 44  1  0  0  0
  5 19  1  0  0  0
  5 45  1  0  0  0
  6 25  1  0  0  0
  6 29  1  0  0  0
  7 20  1  0  0  0
  7 46  1  0  0  0
  8 21  1  0  0  0
  8 47  1  0  0  0
  9 23  1  0  0  0
  9 48  1  0  0  0
 10 24  1  0  0  0
 10 49  1  0  0  0
 11 30  1  0  0  0
 11 34  1  0  0  0
 12 31  2  0  0  0
 13 35  1  0  0  0
 13 50  1  0  0  0
 14 40  1  0  0  0
 14 51  1  0  0  0
 15 41  1  0  0  0
 15 52  1  0  0  0
 16 43  1  0  0  0
 16 53  1  0  0  0
 17 18  1  0  0  0
 17 26  1  0  0  0
 18 19  1  0  0  0
 19 20  1  0  0  0
 20 25  1  0  0  0
 21 22  1  0  0  0
 23 21  1  0  0  0
 24 23  1  0  0  0
 27 24  1  0  0  0
 27 28  1  0  0  0
 29 30  2  0  0  0
 29 31  1  0  0  0
 30 33  1  0  0  0
 31 32  1  0  0  0
 32 34  2  0  0  0
 32 35  1  0  0  0
 33 37  2  0  0  0
 33 38  1  0  0  0
 34 36  1  0  0  0
 35 39  2  0  0  0
 36 40  2  0  0  0
 37 41  1  0  0  0
 38 42  2  0  0  0
 39 40  1  0  0  0
 41 43  2  0  0  0
 42 43  1  0  0  0
M  END
>  <CHROM.0>
88.79688531,62.22603242,-59.94959259

>  <CHROM.1>
-57.94759599,173.91818526,-58.13080363,52.90115703,27.76396376,70.89653152
-178.24706804,-61.12868841,176.25762064,-174.49208996,13.52702978,-106.58439891
-15.42245949,177.15849259,-32.82327570,82.99616100,-48.70227016,-2.94762600
18.40376836,2.42272153,-0.63996921,-2.68475850

>  <HEADER>
                                                                          

>  <MASTER>
        0    0    0    0    0    0    0    0   73    0   73    0          

>  <Name>
Rutin.pdb

>  <RI>
-6.89847e+08

>  <Rbt.Current_Directory>
/root/miniconda3/envs/rdock/share/rxdock-2013.1.1_148c5bd1-0/data/ligands/prepped_ligands/Rutin

>  <Rbt.Executable>
rbdock/0.1.0

>  <Rbt.Library>
librxdock.so/0.1.0

>  <Rbt.Parameter_File>
/root/miniconda3/envs/rdock/share/rxdock-2013.1.1_148c5bd1-0/data/scripts/dock.prm

>  <Rbt.Receptor>
def.prm

>  <SCORE>
-25.1878

>  <SCORE.INTER>
-8.27093

>  <SCORE.INTER.CONST>
1

>  <SCORE.INTER.POLAR>
-0.336809

>  <SCORE.INTER.REPUL>
0

>  <SCORE.INTER.ROT>
6

>  <SCORE.INTER.VDW>
-18.5258

>  <SCORE.INTER.norm>
-0.192347

>  <SCORE.INTRA>
-17.1636

>  <SCORE.INTRA.DIHEDRAL>
-28.9684

>  <SCORE.INTRA.DIHEDRAL.0>
50.0277

>  <SCORE.INTRA.POLAR>
0.00821759

>  <SCORE.INTRA.POLAR.0>
-0.00836998

>  <SCORE.INTRA.REPUL>
0

>  <SCORE.INTRA.REPUL.0>
0

>  <SCORE.INTRA.VDW>
-2.7073

>  <SCORE.INTRA.VDW.0>
-4.42487

>  <SCORE.INTRA.norm>
-0.399153

>  <SCORE.RESTR>
0.107251

>  <SCORE.RESTR.CAVITY>
0.107251

>  <SCORE.RESTR.norm>
0.00249422

>  <SCORE.SYSTEM>
0.139498

>  <SCORE.SYSTEM.CONST>
0

>  <SCORE.SYSTEM.DIHEDRAL>
1.6971

>  <SCORE.SYSTEM.POLAR>
-0.000905135

>  <SCORE.SYSTEM.VDW>
-0.705976

>  <SCORE.SYSTEM.norm>
0.00324414

>  <SCORE.heavy>
43

>  <SCORE.norm>
-0.585762

>  <TITLE>
    Rutin_D                                                               

$$$$
Rutin.pdb
  RxDock  02242110063D
librxdock.so/0.1.0
 53 57  0  0  0  0  0  0  0  0999 V2000
  -49.3181   -3.9596   19.1656 O   0  0  0  0  0  0
  -48.5498   -2.3293   21.0802 O   0  0  0  0  0  0
  -48.7724    0.0124   20.5283 O   0  0  0  0  0  0
  -51.3460   -4.9310   22.1362 O   0  0  0  0  0  0
  -50.4492   -7.4845   21.1568 O   0  0  0  0  0  0
  -48.6337   -5.1951   17.2501 O   0  0  0  0  0  0
  -49.6961   -7.5639   18.3807 O   0  0  0  0  0  0
  -46.3605    0.4525   22.1229 O   0  0  0  0  0  0
  -44.6631   -0.6711   20.1755 O   0  0  0  0  0  0
  -46.2362   -0.1595   17.8110 O   0  0  0  0  0  0
  -49.7035   -2.5446   14.8678 O   0  0  0  0  0  0
  -46.4561   -3.7129   16.9526 O   0  0  0  0  0  0
  -45.0172   -1.8212   15.7390 O   0  0  0  0  0  0
  -47.3878    0.9842   12.7666 O   0  0  0  0  0  0
  -54.1626   -4.2532   17.4743 O   0  0  0  0  0  0
  -54.6687   -6.3264   15.7359 O   0  0  0  0  0  0
  -50.2919   -3.8121   20.2220 C   0  0  0  0  0  0
  -50.3080   -5.0460   21.1512 C   0  0  0  0  0  0
  -50.5232   -6.3233   20.3165 C   0  0  0  0  0  0
  -49.4698   -6.4059   19.1974 C   0  0  0  0  0  0
  -46.6929   -0.8096   21.5236 C   0  0  0  0  0  0
  -48.2233   -0.9708   21.4336 C   0  0  0  0  0  0
  -46.0754   -0.9222   20.1157 C   0  0  0  0  0  0
  -46.7474    0.0596   19.1342 C   0  0  0  0  0  0
  -49.5584   -5.1237   18.3487 C   0  0  0  0  0  0
  -49.9689   -2.5555   21.0466 C   0  0  0  0  0  0
  -48.2797   -0.1287   19.1799 C   0  0  0  0  0  0
  -48.9659    0.9097   18.2780 C   0  0  0  0  0  0
  -48.6232   -4.0980   16.3887 C   0  0  0  0  0  0
  -49.7088   -3.6767   15.6534 C   0  0  0  0  0  0
  -47.4150   -3.3575   16.2685 C   0  0  0  0  0  0
  -47.3555   -2.2308   15.3600 C   0  0  0  0  0  0
  -51.0038   -4.4026   15.6544 C   0  0  0  0  0  0
  -48.5337   -1.8772   14.7003 C   0  0  0  0  0  0
  -46.1835   -1.4924   15.1266 C   0  0  0  0  0  0
  -48.5253   -0.7976   13.8354 C   0  0  0  0  0  0
  -51.9900   -4.0087   16.5501 C   0  0  0  0  0  0
  -51.2808   -5.4459   14.7811 C   0  0  0  0  0  0
  -46.2026   -0.4258   14.2680 C   0  0  0  0  0  0
  -47.3758   -0.0725   13.6176 C   0  0  0  0  0  0
  -53.2075   -4.6462   16.5844 C   0  0  0  0  0  0
  -52.4983   -6.0839   14.8082 C   0  0  0  0  0  0
  -53.4652   -5.6913   15.7086 C   0  0  0  0  0  0
  -51.1908   -4.1406   22.7397 H   0  0  0  0  0  0
  -49.5441   -7.5655   21.5899 H   0  0  0  0  0  0
  -50.6271   -7.5660   17.9995 H   0  0  0  0  0  0
  -45.3657    0.5570   22.2285 H   0  0  0  0  0  0
  -44.1863   -1.3865   20.6981 H   0  0  0  0  0  0
  -45.2354   -0.0672   17.7834 H   0  0  0  0  0  0
  -44.3517   -1.0721   15.7047 H   0  0  0  0  0  0
  -46.5339    1.0396   12.2364 H   0  0  0  0  0  0
  -54.0828   -3.2738   17.6916 H   0  0  0  0  0  0
  -55.1224   -6.2940   14.8395 H   0  0  0  0  0  0
  1 17  1  0  0  0
  1 25  1  0  0  0
  2 22  1  0  0  0
  2 26  1  0  0  0
  3 22  1  0  0  0
  3 27  1  0  0  0
  4 18  1  0  0  0
  4 44  1  0  0  0
  5 19  1  0  0  0
  5 45  1  0  0  0
  6 25  1  0  0  0
  6 29  1  0  0  0
  7 20  1  0  0  0
  7 46  1  0  0  0
  8 21  1  0  0  0
  8 47  1  0  0  0
  9 23  1  0  0  0
  9 48  1  0  0  0
 10 24  1  0  0  0
 10 49  1  0  0  0
 11 30  1  0  0  0
 11 34  1  0  0  0
 12 31  2  0  0  0
 13 35  1  0  0  0
 13 50  1  0  0  0
 14 40  1  0  0  0
 14 51  1  0  0  0
 15 41  1  0  0  0
 15 52  1  0  0  0
 16 43  1  0  0  0
 16 53  1  0  0  0
 17 18  1  0  0  0
 17 26  1  0  0  0
 18 19  1  0  0  0
 19 20  1  0  0  0
 20 25  1  0  0  0
 21 22  1  0  0  0
 23 21  1  0  0  0
 24 23  1  0  0  0
 27 24  1  0  0  0
 27 28  1  0  0  0
 29 30  2  0  0  0
 29 31  1  0  0  0
 30 33  1  0  0  0
 31 32  1  0  0  0
 32 34  2  0  0  0
 32 35  1  0  0  0
 33 37  2  0  0  0
 33 38  1  0  0  0
 34 36  1  0  0  0
 35 39  2  0  0  0
 36 40  2  0  0  0
 37 41  1  0  0  0
 38 42  2  0  0  0
 39 40  1  0  0  0
 41 43  2  0  0  0
 42 43  1  0  0  0
M  END
>  <CHROM.0>
-176.06759313,-63.55846002,-5.54680140

>  <CHROM.1>
-59.17666729,160.47878689,-62.84230717,-61.44544643,-57.76558899,-60.88550468
56.28137734,177.38743298,65.89193693,-56.81155148,-162.83404724,-142.33360835
29.46672791,123.01247178,-32.02289193,-85.86978097,-49.03967561,-2.98946635
17.83582952,-3.07880515,-0.78314999,-1.43149791

>  <HEADER>
                                                                          

>  <MASTER>
        0    0    0    0    0    0    0    0   73    0   73    0          

>  <Name>
Rutin.pdb

>  <RI>
-6.89847e+08

>  <Rbt.Current_Directory>
/root/miniconda3/envs/rdock/share/rxdock-2013.1.1_148c5bd1-0/data/ligands/prepped_ligands/Rutin

>  <Rbt.Executable>
rbdock/0.1.0

>  <Rbt.Library>
librxdock.so/0.1.0

>  <Rbt.Parameter_File>
/root/miniconda3/envs/rdock/share/rxdock-2013.1.1_148c5bd1-0/data/scripts/dock.prm

>  <Rbt.Receptor>
def.prm

>  <SCORE>
-28.5568

>  <SCORE.INTER>
-13.8399

>  <SCORE.INTER.CONST>
1

>  <SCORE.INTER.POLAR>
-2.13907

>  <SCORE.INTER.REPUL>
0

>  <SCORE.INTER.ROT>
6

>  <SCORE.INTER.VDW>
-17.967

>  <SCORE.INTER.norm>
-0.321857

>  <SCORE.INTRA>
-16.6001

>  <SCORE.INTRA.DIHEDRAL>
-30.2161

>  <SCORE.INTRA.DIHEDRAL.0>
50.0277

>  <SCORE.INTRA.POLAR>
0.00836998

>  <SCORE.INTRA.POLAR.0>
-0.00836998

>  <SCORE.INTRA.REPUL>
0

>  <SCORE.INTRA.REPUL.0>
0

>  <SCORE.INTRA.VDW>
-1.52049

>  <SCORE.INTRA.VDW.0>
-4.42487

>  <SCORE.INTRA.norm>
-0.386049

>  <SCORE.RESTR>
0.45816

>  <SCORE.RESTR.CAVITY>
0.45816

>  <SCORE.RESTR.norm>
0.0106549

>  <SCORE.SYSTEM>
1.425

>  <SCORE.SYSTEM.CONST>
0

>  <SCORE.SYSTEM.DIHEDRAL>
3.61758

>  <SCORE.SYSTEM.VDW>
-0.383791

>  <SCORE.SYSTEM.norm>
0.0331395

>  <SCORE.heavy>
43

>  <SCORE.norm>
-0.664112

>  <TITLE>
    Rutin_D                                                               

$$$$
Rutin.pdb
  RxDock  02242110063D
librxdock.so/0.1.0
 53 57  0  0  0  0  0  0  0  0999 V2000
  -48.1313   -3.0520   15.9681 O   0  0  0  0  0  0
  -48.8120   -5.3434   17.7889 O   0  0  0  0  0  0
  -49.8935   -7.5025   17.8690 O   0  0  0  0  0  0
  -50.7419   -4.9963   14.1557 O   0  0  0  0  0  0
  -50.1855   -2.8628   12.3056 O   0  0  0  0  0  0
  -47.3935   -0.8014   15.7342 O   0  0  0  0  0  0
  -49.0349   -0.4858   13.4485 O   0  0  0  0  0  0
  -48.6031   -7.8736   20.4672 O   0  0  0  0  0  0
  -50.3261   -6.0663   21.7713 O   0  0  0  0  0  0
  -52.6423   -6.2908   20.0649 O   0  0  0  0  0  0
  -46.8203   -0.7060   19.4094 O   0  0  0  0  0  0
  -44.9554   -1.8052   16.0079 O   0  0  0  0  0  0
  -42.7454   -2.3299   17.4090 O   0  0  0  0  0  0
  -43.0872   -1.7651   22.0876 O   0  0  0  0  0  0
  -52.2010   -1.0130   18.5743 O   0  0  0  0  0  0
  -52.5510    1.7110   18.3925 O   0  0  0  0  0  0
  -49.2148   -3.9911   15.7941 C   0  0  0  0  0  0
  -49.6014   -4.1374   14.3057 C   0  0  0  0  0  0
  -49.9135   -2.7508   13.7104 C   0  0  0  0  0  0
  -48.7311   -1.7952   13.9509 C   0  0  0  0  0  0
  -48.8610   -6.5844   19.8893 C   0  0  0  0  0  0
  -48.8150   -6.6705   18.3509 C   0  0  0  0  0  0
  -50.2365   -6.0529   20.3385 C   0  0  0  0  0  0
  -51.3810   -6.8872   19.7279 C   0  0  0  0  0  0
  -48.4498   -1.7387   15.4641 C   0  0  0  0  0  0
  -48.8003   -5.3624   16.3517 C   0  0  0  0  0  0
  -51.1968   -6.9783   18.1971 C   0  0  0  0  0  0
  -52.2768   -7.8874   17.5890 C   0  0  0  0  0  0
  -46.7944   -0.9020   16.9900 C   0  0  0  0  0  0
  -47.3963   -0.5268   18.1705 C   0  0  0  0  0  0
  -45.4786   -1.4372   17.0589 C   0  0  0  0  0  0
  -44.8111   -1.5281   18.3412 C   0  0  0  0  0  0
  -48.7432    0.0956   18.2172 C   0  0  0  0  0  0
  -45.5405   -1.1534   19.4708 C   0  0  0  0  0  0
  -43.4875   -1.9748   18.4891 C   0  0  0  0  0  0
  -44.9465   -1.2395   20.7172 C   0  0  0  0  0  0
  -49.8534   -0.7248   18.3734 C   0  0  0  0  0  0
  -48.9401    1.4676   18.1342 C   0  0  0  0  0  0
  -42.9238   -2.0538   19.7345 C   0  0  0  0  0  0
  -43.6521   -1.6864   20.8564 C   0  0  0  0  0  0
  -51.1206   -0.1945   18.4285 C   0  0  0  0  0  0
  -50.2047    2.0034   18.1932 C   0  0  0  0  0  0
  -51.2995    1.1786   18.3376 C   0  0  0  0  0  0
  -50.5542   -5.9183   14.5128 H   0  0  0  0  0  0
  -49.4467   -3.3521   11.8279 H   0  0  0  0  0  0
  -49.1342   -0.4924   12.4475 H   0  0  0  0  0  0
  -49.2836   -8.5515   20.1685 H   0  0  0  0  0  0
  -50.2392   -7.0005   22.1345 H   0  0  0  0  0  0
  -52.8032   -6.3066   21.0572 H   0  0  0  0  0  0
  -43.2356   -2.9680   16.8108 H   0  0  0  0  0  0
  -42.3184   -1.1222   22.1816 H   0  0  0  0  0  0
  -52.9393   -0.7655   17.9369 H   0  0  0  0  0  0
  -53.2092    1.1583   17.8713 H   0  0  0  0  0  0
  1 17  1  0  0  0
  1 25  1  0  0  0
  2 22  1  0  0  0
  2 26  1  0  0  0
  3 22  1  0  0  0
  3 27  1  0  0  0
  4 18  1  0  0  0
  4 44  1  0  0  0
  5 19  1  0  0  0
  5 45  1  0  0  0
  6 25  1  0  0  0
  6 29  1  0  0  0
  7 20  1  0  0  0
  7 46  1  0  0  0
  8 21  1  0  0  0
  8 47  1  0  0  0
  9 23  1  0  0  0
  9 48  1  0  0  0
 10 24  1  0  0  0
 10 49  1  0  0  0
 11 30  1  0  0  0
 11 34  1  0  0  0
 12 31  2  0  0  0
 13 35  1  0  0  0
 13 50  1  0  0  0
 14 40  1  0  0  0
 14 51  1  0  0  0
 15 41  1  0  0  0
 15 52  1  0  0  0
 16 43  1  0  0  0
 16 53  1  0  0  0
 17 18  1  0  0  0
 17 26  1  0  0  0
 18 19  1  0  0  0
 19 20  1  0  0  0
 20 25  1  0  0  0
 21 22  1  0  0  0
 23 21  1  0  0  0
 24 23  1  0  0  0
 27 24  1  0  0  0
 27 28  1  0  0  0
 29 30  2  0  0  0
 29 31  1  0  0  0
 30 33  1  0  0  0
 31 32  1  0  0  0
 32 34  2  0  0  0
 32 35  1  0  0  0
 33 37  2  0  0  0
 33 38  1  0  0  0
 34 36  1  0  0  0
 35 39  2  0  0  0
 36 40  2  0  0  0
 37 41  1  0  0  0
 38 42  2  0  0  0
 39 40  1  0  0  0
 41 43  2  0  0  0
 42 43  1  0  0  0
M  END
>  <CHROM.0>
67.55591341,-176.57352485,-58.78592249

>  <CHROM.1>
-54.96415739,163.16164041,-60.32558852,-52.79870965,-40.62980731,-72.00043119
-65.48161792,-59.78843915,-61.54519281,-63.90029824,-49.79590058,-114.73183301
-134.29721298,-40.69736902,74.27466993,-87.21757190,-48.46401736,-2.90338643
17.75206737,0.61034544,-0.52387460,-0.55795433

>  <HEADER>
                                                                          

>  <MASTER>
        0    0    0    0    0    0    0    0   73    0   73    0          

>  <Name>
Rutin.pdb

>  <RI>
-6.89847e+08

>  <Rbt.Current_Directory>
/root/miniconda3/envs/rdock/share/rxdock-2013.1.1_148c5bd1-0/data/ligands/prepped_ligands/Rutin

>  <Rbt.Executable>
rbdock/0.1.0

>  <Rbt.Library>
librxdock.so/0.1.0

>  <Rbt.Parameter_File>
/root/miniconda3/envs/rdock/share/rxdock-2013.1.1_148c5bd1-0/data/scripts/dock.prm

>  <Rbt.Receptor>
def.prm

>  <SCORE>
-26.8968

>  <SCORE.INTER>
-14.1403

>  <SCORE.INTER.CONST>
1

>  <SCORE.INTER.POLAR>
-1.04278

>  <SCORE.INTER.REPUL>
0.240719

>  <SCORE.INTER.ROT>
6

>  <SCORE.INTER.VDW>
-23.1985

>  <SCORE.INTER.norm>
-0.328845

>  <SCORE.INTRA>
-12.5509

>  <SCORE.INTRA.DIHEDRAL>
-25.1933

>  <SCORE.INTRA.DIHEDRAL.0>
50.0277

>  <SCORE.INTRA.POLAR>
0.00836998

>  <SCORE.INTRA.POLAR.0>
-0.00836998

>  <SCORE.INTRA.REPUL>
0

>  <SCORE.INTRA.REPUL.0>
0

>  <SCORE.INTRA.VDW>
0.0173186

>  <SCORE.INTRA.VDW.0>
-4.42487

>  <SCORE.INTRA.norm>
-0.291881

>  <SCORE.RESTR>
0.74998

>  <SCORE.RESTR.CAVITY>
0.74998

>  <SCORE.RESTR.norm>
0.0174414

>  <SCORE.SYSTEM>
-0.955574

>  <SCORE.SYSTEM.CONST>
0

>  <SCORE.SYSTEM.DIHEDRAL>
0.194223

>  <SCORE.SYSTEM.POLAR>
-0.00379749

>  <SCORE.SYSTEM.VDW>
-1.03977

>  <SCORE.SYSTEM.norm>
-0.0222227

>  <SCORE.heavy>
43

>  <SCORE.norm>
-0.625507

>  <TITLE>
    Rutin_D                                                               

$$$$
Rutin.pdb
  RxDock  02242110063D
librxdock.so/0.1.0
 53 57  0  0  0  0  0  0  0  0999 V2000
  -50.2359   -2.6747   18.9428 O   0  0  0  0  0  0
  -48.5388   -0.5997   20.2709 O   0  0  0  0  0  0
  -46.2510   -1.1993   20.7653 O   0  0  0  0  0  0
  -52.2929   -1.4517   21.7982 O   0  0  0  0  0  0
  -54.0090   -3.4441   20.6282 O   0  0  0  0  0  0
  -50.8340   -3.8183   16.9432 O   0  0  0  0  0  0
  -53.5000   -4.0652   17.8649 O   0  0  0  0  0  0
  -45.9078   -1.6155   17.8908 O   0  0  0  0  0  0
  -45.9069    1.1431   17.3196 O   0  0  0  0  0  0
  -44.9387    2.1578   19.8415 O   0  0  0  0  0  0
  -47.2538   -4.3870   16.1044 O   0  0  0  0  0  0
  -50.0195   -1.4535   16.0649 O   0  0  0  0  0  0
  -48.1353    0.2901   15.3359 O   0  0  0  0  0  0
  -43.8247   -1.5094   14.6245 O   0  0  0  0  0  0
  -46.8456   -8.6982   18.4952 O   0  0  0  0  0  0
  -49.3685   -9.7985   18.5096 O   0  0  0  0  0  0
  -50.6601   -1.7804   19.9946 C   0  0  0  0  0  0
  -51.8149   -2.3885   20.8211 C   0  0  0  0  0  0
  -52.9681   -2.7949   19.8833 C   0  0  0  0  0  0
  -52.4440   -3.7257   18.7753 C   0  0  0  0  0  0
  -46.9214   -0.7665   18.4514 C   0  0  0  0  0  0
  -47.3525   -1.2923   19.8349 C   0  0  0  0  0  0
  -46.4064    0.6804   18.5836 C   0  0  0  0  0  0
  -45.3050    0.7822   19.6583 C   0  0  0  0  0  0
  -51.3040   -3.0049   18.0316 C   0  0  0  0  0  0
  -49.4719   -1.4780   20.9220 C   0  0  0  0  0  0
  -45.8086    0.1571   20.9779 C   0  0  0  0  0  0
  -44.6860    0.1656   22.0278 C   0  0  0  0  0  0
  -49.5101   -3.6128   16.5549 C   0  0  0  0  0  0
  -48.5369   -4.5872   16.5654 C   0  0  0  0  0  0
  -49.1413   -2.3141   16.1080 C   0  0  0  0  0  0
  -47.7684   -2.0534   15.7265 C   0  0  0  0  0  0
  -48.7897   -5.9626   17.0637 C   0  0  0  0  0  0
  -46.8836   -3.1328   15.7416 C   0  0  0  0  0  0
  -47.3045   -0.7837   15.3445 C   0  0  0  0  0  0
  -45.5665   -2.9315   15.3694 C   0  0  0  0  0  0
  -47.7206   -6.7043   17.5503 C   0  0  0  0  0  0
  -50.0556   -6.5327   17.0858 C   0  0  0  0  0  0
  -45.9965   -0.6116   14.9774 C   0  0  0  0  0  0
  -45.1200   -1.6867   14.9876 C   0  0  0  0  0  0
  -47.9059   -7.9799   18.0281 C   0  0  0  0  0  0
  -50.2473   -7.8063   17.5667 C   0  0  0  0  0  0
  -49.1771   -8.5365   18.0369 C   0  0  0  0  0  0
  -52.6548   -0.6206   21.3610 H   0  0  0  0  0  0
  -54.7604   -3.7386   20.0264 H   0  0  0  0  0  0
  -53.9971   -3.2456   17.5597 H   0  0  0  0  0  0
  -45.0438   -1.5397   18.4003 H   0  0  0  0  0  0
  -46.6254    1.1303   16.6155 H   0  0  0  0  0  0
  -44.1952    2.2544   20.5115 H   0  0  0  0  0  0
  -49.0884    0.0254   15.1727 H   0  0  0  0  0  0
  -43.2199   -1.4660   15.4280 H   0  0  0  0  0  0
  -47.1383   -9.4021   19.1521 H   0  0  0  0  0  0
  -49.0116   -9.8996   19.4439 H   0  0  0  0  0  0
  1 17  1  0  0  0
  1 25  1  0  0  0
  2 22  1  0  0  0
  2 26  1  0  0  0
  3 22  1  0  0  0
  3 27  1  0  0  0
  4 18  1  0  0  0
  4 44  1  0  0  0
  5 19  1  0  0  0
  5 45  1  0  0  0
  6 25  1  0  0  0
  6 29  1  0  0  0
  7 20  1  0  0  0
  7 46  1  0  0  0
  8 21  1  0  0  0
  8 47  1  0  0  0
  9 23  1  0  0  0
  9 48  1  0  0  0
 10 24  1  0  0  0
 10 49  1  0  0  0
 11 30  1  0  0  0
 11 34  1  0  0  0
 12 31  2  0  0  0
 13 35  1  0  0  0
 13 50  1  0  0  0
 14 40  1  0  0  0
 14 51  1  0  0  0
 15 41  1  0  0  0
 15 52  1  0  0  0
 16 43  1  0  0  0
 16 53  1  0  0  0
 17 18  1  0  0  0
 17 26  1  0  0  0
 18 19  1  0  0  0
 19 20  1  0  0  0
 20 25  1  0  0  0
 21 22  1  0  0  0
 23 21  1  0  0  0
 24 23  1  0  0  0
 27 24  1  0  0  0
 27 28  1  0  0  0
 29 30  2  0  0  0
 29 31  1  0  0  0
 30 33  1  0  0  0
 31 32  1  0  0  0
 32 34  2  0  0  0
 32 35  1  0  0  0
 33 37  2  0  0  0
 33 38  1  0  0  0
 34 36  1  0  0  0
 35 39  2  0  0  0
 36 40  2  0  0  0
 37 41  1  0  0  0
 38 42  2  0  0  0
 39 40  1  0  0  0
 41 43  2  0  0  0
 42 43  1  0  0  0
M  END
>  <CHROM.0>
78.31528839,178.94635002,-83.39647641

>  <CHROM.1>
-96.14678158,-105.19496412,61.31470410,-178.48303987,-30.53924198,120.65604788
49.28769659,-68.90363591,60.16445038,-177.74641602,-28.22698797,-77.72867951
155.36176249,54.85212028,72.97631443,26.53512236,-48.44826239,-2.77670139
18.11106033,2.36208095,-0.52375926,-2.70993212

>  <HEADER>
                                                                          

>  <MASTER>
        0    0    0    0    0    0    0    0   73    0   73    0          

>  <Name>
Rutin.pdb

>  <RI>
-6.89847e+08

>  <Rbt.Current_Directory>
/root/miniconda3/envs/rdock/share/rxdock-2013.1.1_148c5bd1-0/data/ligands/prepped_ligands/Rutin

>  <Rbt.Executable>
rbdock/0.1.0

>  <Rbt.Library>
librxdock.so/0.1.0

>  <Rbt.Parameter_File>
/root/miniconda3/envs/rdock/share/rxdock-2013.1.1_148c5bd1-0/data/scripts/dock.prm

>  <Rbt.Receptor>
def.prm

>  <SCORE>
-20.0822

>  <SCORE.INTER>
-7.38275

>  <SCORE.INTER.CONST>
1

>  <SCORE.INTER.POLAR>
-0.853875

>  <SCORE.INTER.REPUL>
0.137193

>  <SCORE.INTER.ROT>
6

>  <SCORE.INTER.VDW>
-16.5655

>  <SCORE.INTER.norm>
-0.171692

>  <SCORE.INTRA>
-13.8272

>  <SCORE.INTRA.DIHEDRAL>
-19.8474

>  <SCORE.INTRA.DIHEDRAL.0>
50.0277

>  <SCORE.INTRA.POLAR>
-0.991506

>  <SCORE.INTRA.POLAR.0>
-0.00836998

>  <SCORE.INTRA.REPUL>
0

>  <SCORE.INTRA.REPUL.0>
0

>  <SCORE.INTRA.VDW>
-0.532421

>  <SCORE.INTRA.VDW.0>
-4.42487

>  <SCORE.INTRA.norm>
-0.321564

>  <SCORE.RESTR>
0.977835

>  <SCORE.RESTR.CAVITY>
0.977835

>  <SCORE.RESTR.norm>
0.0227404

>  <SCORE.SYSTEM>
0.149926

>  <SCORE.SYSTEM.CONST>
0

>  <SCORE.SYSTEM.DIHEDRAL>
1.96479

>  <SCORE.SYSTEM.VDW>
-0.832471

>  <SCORE.SYSTEM.norm>
0.00348665

>  <SCORE.heavy>
43

>  <SCORE.norm>
-0.467028

>  <TITLE>
    Rutin_D                                                               

$$$$
Rutin.pdb
  RxDock  02242110063D
librxdock.so/0.1.0
 53 57  0  0  0  0  0  0  0  0999 V2000
  -49.2629   -2.3559   16.4801 O   0  0  0  0  0  0
  -47.1505   -0.6764   17.6074 O   0  0  0  0  0  0
  -44.7461   -0.4708   17.7265 O   0  0  0  0  0  0
  -46.9105   -0.6236   14.1681 O   0  0  0  0  0  0
  -49.4732    0.2083   13.1560 O   0  0  0  0  0  0
  -51.5621   -2.9278   16.2547 O   0  0  0  0  0  0
  -51.6911   -1.5044   13.8102 O   0  0  0  0  0  0
  -45.1858    2.2849   18.6019 O   0  0  0  0  0  0
  -46.0511    1.5108   21.1686 O   0  0  0  0  0  0
  -44.6610   -1.0066   21.4077 O   0  0  0  0  0  0
  -50.8176   -4.2098   19.6674 O   0  0  0  0  0  0
  -52.2954   -5.4724   16.1350 O   0  0  0  0  0  0
  -52.3926   -7.9643   17.0854 O   0  0  0  0  0  0
  -51.1008   -8.5018   21.5984 O   0  0  0  0  0  0
  -51.3283    1.4009   17.9105 O   0  0  0  0  0  0
  -49.1027    1.8761   19.4587 O   0  0  0  0  0  0
  -48.0158   -2.0813   15.8053 C   0  0  0  0  0  0
  -48.1235   -0.8285   14.9080 C   0  0  0  0  0  0
  -49.3062   -0.9868   13.9330 C   0  0  0  0  0  0
  -50.5950   -1.3007   14.7136 C   0  0  0  0  0  0
  -46.1647    1.2439   18.7452 C   0  0  0  0  0  0
  -46.0148    0.2108   17.6110 C   0  0  0  0  0  0
  -46.0159    0.5421   20.1096 C   0  0  0  0  0  0
  -44.7062   -0.2696   20.1769 C   0  0  0  0  0  0
  -50.3559   -2.5637   15.5623 C   0  0  0  0  0  0
  -46.9042   -1.8705   16.8461 C   0  0  0  0  0  0
  -44.6171   -1.2127   18.9569 C   0  0  0  0  0  0
  -43.2719   -1.9563   18.9621 C   0  0  0  0  0  0
  -51.4042   -3.7737   17.3525 C   0  0  0  0  0  0
  -50.8936   -3.3804   18.5696 C   0  0  0  0  0  0
  -51.8063   -5.1304   17.2109 C   0  0  0  0  0  0
  -51.6286   -6.0471   18.3183 C   0  0  0  0  0  0
  -50.3895   -2.0062   18.8173 C   0  0  0  0  0  0
  -51.1378   -5.5197   19.5138 C   0  0  0  0  0  0
  -51.9303   -7.4168   18.2386 C   0  0  0  0  0  0
  -50.9676   -6.3570   20.6017 C   0  0  0  0  0  0
  -51.0746   -0.9328   18.2621 C   0  0  0  0  0  0
  -49.2732   -1.7455   19.6008 C   0  0  0  0  0  0
  -51.7557   -8.2238   19.3311 C   0  0  0  0  0  0
  -51.2732   -7.6966   20.5200 C   0  0  0  0  0  0
  -50.6499    0.3583   18.4684 C   0  0  0  0  0  0
  -48.8468   -0.4560   19.8139 C   0  0  0  0  0  0
  -49.5285    0.6004   19.2490 C   0  0  0  0  0  0
  -46.7656   -1.3568   13.4940 H   0  0  0  0  0  0
  -49.6751    1.0009   13.7429 H   0  0  0  0  0  0
  -52.4802   -1.9155   14.2797 H   0  0  0  0  0  0
  -45.3608    2.8419   17.7828 H   0  0  0  0  0  0
  -46.0725    1.0659   22.0707 H   0  0  0  0  0  0
  -44.7061   -0.3951   22.2045 H   0  0  0  0  0  0
  -52.1439   -7.4157   16.2839 H   0  0  0  0  0  0
  -50.7939   -7.9794   22.4024 H   0  0  0  0  0  0
  -52.3235    1.2869   18.0077 H   0  0  0  0  0  0
  -49.5553    2.2888   20.2557 H   0  0  0  0  0  0
  1 17  1  0  0  0
  1 25  1  0  0  0
  2 22  1  0  0  0
  2 26  1  0  0  0
  3 22  1  0  0  0
  3 27  1  0  0  0
  4 18  1  0  0  0
  4 44  1  0  0  0
  5 19  1  0  0  0
  5 45  1  0  0  0
  6 25  1  0  0  0
  6 29  1  0  0  0
  7 20  1  0  0  0
  7 46  1  0  0  0
  8 21  1  0  0  0
  8 47  1  0  0  0
  9 23  1  0  0  0
  9 48  1  0  0  0
 10 24  1  0  0  0
 10 49  1  0  0  0
 11 30  1  0  0  0
 11 34  1  0  0  0
 12 31  2  0  0  0
 13 35  1  0  0  0
 13 50  1  0  0  0
 14 40  1  0  0  0
 14 51  1  0  0  0
 15 41  1  0  0  0
 15 52  1  0  0  0
 16 43  1  0  0  0
 16 53  1  0  0  0
 17 18  1  0  0  0
 17 26  1  0  0  0
 18 19  1  0  0  0
 19 20  1  0  0  0
 20 25  1  0  0  0
 21 22  1  0  0  0
 23 21  1  0  0  0
 24 23  1  0  0  0
 27 24  1  0  0  0
 27 28  1  0  0  0
 29 30  2  0  0  0
 29 31  1  0  0  0
 30 33  1  0  0  0
 31 32  1  0  0  0
 32 34  2  0  0  0
 32 35  1  0  0  0
 33 37  2  0  0  0
 33 38  1  0  0  0
 34 36  1  0  0  0
 35 39  2  0  0  0
 36 40  2  0  0  0
 37 41  1  0  0  0
 38 42  2  0  0  0
 39 40  1  0  0  0
 41 43  2  0  0  0
 42 43  1  0  0  0
M  END
>  <CHROM.0>
-61.33034612,-178.82334286,55.86570009

>  <CHROM.1>
-39.76898051,-127.16157127,66.94085554,-61.15304423,-38.00564459,73.99387590
166.80267834,67.30883967,172.82681271,-59.43934329,22.69230418,3.21760655
43.69976473,87.84356501,-66.37976899,-140.19260474,-49.01417270,-2.17317235
17.93028315,2.60856718,0.74275204,2.30065804

>  <HEADER>
                                                                          

>  <MASTER>
        0    0    0    0    0    0    0    0   73    0   73    0          

>  <Name>
Rutin.pdb

>  <RI>
-6.89847e+08

>  <Rbt.Current_Directory>
/root/miniconda3/envs/rdock/share/rxdock-2013.1.1_148c5bd1-0/data/ligands/prepped_ligands/Rutin

>  <Rbt.Executable>
rbdock/0.1.0

>  <Rbt.Library>
librxdock.so/0.1.0

>  <Rbt.Parameter_File>
/root/miniconda3/envs/rdock/share/rxdock-2013.1.1_148c5bd1-0/data/scripts/dock.prm

>  <Rbt.Receptor>
def.prm

>  <SCORE>
-28.9958

>  <SCORE.INTER>
-15.9657

>  <SCORE.INTER.CONST>
1

>  <SCORE.INTER.POLAR>
-1.82251

>  <SCORE.INTER.REPUL>
0.0101176

>  <SCORE.INTER.ROT>
6

>  <SCORE.INTER.VDW>
-21.2198

>  <SCORE.INTER.norm>
-0.371296

>  <SCORE.INTRA>
-11.9754

>  <SCORE.INTRA.DIHEDRAL>
-23.1356

>  <SCORE.INTRA.DIHEDRAL.0>
50.0277

>  <SCORE.INTRA.POLAR>
-0.0188538

>  <SCORE.INTRA.POLAR.0>
-0.00836998

>  <SCORE.INTRA.REPUL>
0

>  <SCORE.INTRA.REPUL.0>
0

>  <SCORE.INTRA.VDW>
-0.343511

>  <SCORE.INTRA.VDW.0>
-4.42487

>  <SCORE.INTRA.norm>
-0.278498

>  <SCORE.RESTR>
0.000622309

>  <SCORE.RESTR.CAVITY>
0.000622309

>  <SCORE.RESTR.norm>
1.44723e-05

>  <SCORE.SYSTEM>
-1.0553

>  <SCORE.SYSTEM.CONST>
0

>  <SCORE.SYSTEM.DIHEDRAL>
0.0577311

>  <SCORE.SYSTEM.VDW>
-1.08416

>  <SCORE.SYSTEM.norm>
-0.0245418

>  <SCORE.heavy>
43

>  <SCORE.norm>
-0.674322

>  <TITLE>
    Rutin_D                                                               

$$$$
Rutin.pdb
  RxDock  02242110073D
librxdock.so/0.1.0
 53 57  0  0  0  0  0  0  0  0999 V2000
  -49.0972   -3.8384   15.9280 O   0  0  0  0  0  0
  -52.3819   -4.7028   14.4763 O   0  0  0  0  0  0
  -52.7808   -5.1115   16.8240 O   0  0  0  0  0  0
  -51.5738   -2.2919   13.6140 O   0  0  0  0  0  0
  -49.3574   -0.4645   13.4344 O   0  0  0  0  0  0
  -47.2092   -2.9284   17.0558 O   0  0  0  0  0  0
  -47.5371   -0.4849   15.6630 O   0  0  0  0  0  0
  -55.5982   -4.5474   16.2790 O   0  0  0  0  0  0
  -56.0094   -7.0014   14.9580 O   0  0  0  0  0  0
  -53.9710   -8.5888   16.2434 O   0  0  0  0  0  0
  -46.8370   -0.0095   19.3331 O   0  0  0  0  0  0
  -44.5841   -2.5948   17.2125 O   0  0  0  0  0  0
  -42.4002   -1.2149   17.8823 O   0  0  0  0  0  0
  -43.0845    2.4435   20.7931 O   0  0  0  0  0  0
  -51.5667   -3.1026   19.8036 O   0  0  0  0  0  0
  -53.0206   -1.0757   18.6400 O   0  0  0  0  0  0
  -50.3886   -3.5805   15.3350 C   0  0  0  0  0  0
  -50.2753   -2.6178   14.1322 C   0  0  0  0  0  0
  -49.5498   -1.3287   14.5640 C   0  0  0  0  0  0
  -48.1956   -1.6759   15.2077 C   0  0  0  0  0  0
  -54.6706   -4.9853   15.2738 C   0  0  0  0  0  0
  -53.2496   -4.4895   15.6071 C   0  0  0  0  0  0
  -54.6719   -6.5230   15.1661 C   0  0  0  0  0  0
  -54.0683   -7.1690   16.4298 C   0  0  0  0  0  0
  -48.4472   -2.6351   16.3861 C   0  0  0  0  0  0
  -51.0149   -4.9058   14.8716 C   0  0  0  0  0  0
  -52.6846   -6.5471   16.7200 C   0  0  0  0  0  0
  -52.1160   -7.1136   18.0308 C   0  0  0  0  0  0
  -46.6604   -1.8890   17.8069 C   0  0  0  0  0  0
  -47.3984   -0.9816   18.5340 C   0  0  0  0  0  0
  -45.2441   -1.7625   17.8333 C   0  0  0  0  0  0
  -44.6380   -0.6767   18.5763 C   0  0  0  0  0  0
  -48.8829   -0.9800   18.5369 C   0  0  0  0  0  0
  -45.4900    0.1540   19.3058 C   0  0  0  0  0  0
  -43.2541   -0.4362   18.5949 C   0  0  0  0  0  0
  -44.9516    1.1940   20.0423 C   0  0  0  0  0  0
  -49.5513   -2.0261   19.1605 C   0  0  0  0  0  0
  -49.6341    0.0364   17.9617 C   0  0  0  0  0  0
  -42.7461    0.5981   19.3346 C   0  0  0  0  0  0
  -43.5939    1.4191   20.0635 C   0  0  0  0  0  0
  -50.9250   -2.0653   19.1946 C   0  0  0  0  0  0
  -51.0080    0.0043   17.9969 C   0  0  0  0  0  0
  -51.6601   -1.0443   18.6091 C   0  0  0  0  0  0
  -52.2047   -2.0247   14.3512 H   0  0  0  0  0  0
  -48.9784    0.4250   13.7147 H   0  0  0  0  0  0
  -47.3960    0.1657   14.9088 H   0  0  0  0  0  0
  -56.4555   -4.2188   15.8679 H   0  0  0  0  0  0
  -56.0238   -7.9974   14.8169 H   0  0  0  0  0  0
  -53.3050   -8.8209   15.5268 H   0  0  0  0  0  0
  -42.1377   -2.0413   18.3857 H   0  0  0  0  0  0
  -42.4862    3.0306   20.2356 H   0  0  0  0  0  0
  -50.9152   -3.7918   20.1404 H   0  0  0  0  0  0
  -53.3589   -1.8868   19.1278 H   0  0  0  0  0  0
  1 17  1  0  0  0
  1 25  1  0  0  0
  2 22  1  0  0  0
  2 26  1  0  0  0
  3 22  1  0  0  0
  3 27  1  0  0  0
  4 18  1  0  0  0
  4 44  1  0  0  0
  5 19  1  0  0  0
  5 45  1  0  0  0
  6 25  1  0  0  0
  6 29  1  0  0  0
  7 20  1  0  0  0
  7 46  1  0  0  0
  8 21  1  0  0  0
  8 47  1  0  0  0
  9 23  1  0  0  0
  9 48  1  0  0  0
 10 24  1  0  0  0
 10 49  1  0  0  0
 11 30  1  0  0  0
 11 34  1  0  0  0
 12 31  2  0  0  0
 13 35  1  0  0  0
 13 50  1  0  0  0
 14 40  1  0  0  0
 14 51  1  0  0  0
 15 41  1  0  0  0
 15 52  1  0  0  0
 16 43  1  0  0  0
 16 53  1  0  0  0
 17 18  1  0  0  0
 17 26  1  0  0  0
 18 19  1  0  0  0
 19 20  1  0  0  0
 20 25  1  0  0  0
 21 22  1  0  0  0
 23 21  1  0  0  0
 24 23  1  0  0  0
 27 24  1  0  0  0
 27 28  1  0  0  0
 29 30  2  0  0  0
 29 31  1  0  0  0
 30 33  1  0  0  0
 31 32  1  0  0  0
 32 34  2  0  0  0
 32 35  1  0  0  0
 33 37  2  0  0  0
 33 38  1  0  0  0
 34 36  1  0  0  0
 35 39  2  0  0  0
 36 40  2  0  0  0
 37 41  1  0  0  0
 38 42  2  0  0  0
 39 40  1  0  0  0
 41 43  2  0  0  0
 42 43  1  0  0  0
M  END
>  <CHROM.0>
-73.34648916,64.55820790,41.06759582

>  <CHROM.1>
-27.41180235,-73.21971081,48.22273668,173.63999893,-165.43236268,36.47859670
-57.98371671,137.37002359,175.78912854,66.45732904,-85.02851305,-127.45803065
-3.11985030,0.75252209,170.79105219,-109.83485234,-49.45519776,-2.57820705
17.08486975,-2.65156906,0.38601063,1.09461176

>  <HEADER>
                                                                          

>  <MASTER>
        0    0    0    0    0    0    0    0   73    0   73    0          

>  <Name>
Rutin.pdb

>  <RI>
-6.89847e+08

>  <Rbt.Current_Directory>
/root/miniconda3/envs/rdock/share/rxdock-2013.1.1_148c5bd1-0/data/ligands/prepped_ligands/Rutin

>  <Rbt.Executable>
rbdock/0.1.0

>  <Rbt.Library>
librxdock.so/0.1.0

>  <Rbt.Parameter_File>
/root/miniconda3/envs/rdock/share/rxdock-2013.1.1_148c5bd1-0/data/scripts/dock.prm

>  <Rbt.Receptor>
def.prm

>  <SCORE>
-29.2574

>  <SCORE.INTER>
-18.9965

>  <SCORE.INTER.CONST>
1

>  <SCORE.INTER.POLAR>
-2.01405

>  <SCORE.INTER.REPUL>
0.723562

>  <SCORE.INTER.ROT>
6

>  <SCORE.INTER.VDW>
-27.1665

>  <SCORE.INTER.norm>
-0.441779

>  <SCORE.INTRA>
-10.0211

>  <SCORE.INTRA.DIHEDRAL>
-23.0894

>  <SCORE.INTRA.DIHEDRAL.0>
50.0277

>  <SCORE.INTRA.POLAR>
-0.098993

>  <SCORE.INTRA.POLAR.0>
-0.00836998

>  <SCORE.INTRA.REPUL>
0

>  <SCORE.INTRA.REPUL.0>
0

>  <SCORE.INTRA.VDW>
1.86013

>  <SCORE.INTRA.VDW.0>
-4.42487

>  <SCORE.INTRA.norm>
-0.23305

>  <SCORE.RESTR>
0.0177249

>  <SCORE.RESTR.CAVITY>
0.0177249

>  <SCORE.RESTR.norm>
0.000412206

>  <SCORE.SYSTEM>
-0.257499

>  <SCORE.SYSTEM.CONST>
0

>  <SCORE.SYSTEM.DIHEDRAL>
1.36052

>  <SCORE.SYSTEM.VDW>
-0.937759

>  <SCORE.SYSTEM.norm>
-0.00598834

>  <SCORE.heavy>
43

>  <SCORE.norm>
-0.680405

>  <TITLE>
    Rutin_D                                                               

$$$$
