Rutin.pdb
 OpenBabel02182114013D

 73 77  0  0  1  0  0  0  0  0999 V2000
   11.3520    3.7760   22.3410 O   0  0  0  0  0  0  0  0  0  0  0  0
   13.9890    4.4270   24.4050 O   0  0  0  0  0  0  0  0  0  0  0  0
   15.2920    5.9440   25.7610 O   0  0  0  0  0  0  0  0  0  0  0  0
   14.5320    5.1330   20.9530 O   0  0  0  0  0  0  0  0  0  0  0  0
   12.9750    4.6910   18.5730 O   0  0  0  0  0  0  0  0  0  0  0  0
    9.6180    2.4870   21.3430 O   0  0  0  0  0  0  0  0  0  0  0  0
   10.8510    2.7640   18.8090 O   0  0  0  0  0  0  0  0  0  0  0  0
   13.9040    4.8140   28.0740 O   0  0  0  0  0  0  0  0  0  0  0  0
   15.3440    2.3950   27.9700 O   0  0  0  0  0  0  0  0  0  0  0  0
   17.7640    3.3280   26.7050 O   0  0  0  0  0  0  0  0  0  0  0  0
    9.4570   -1.0790   22.3930 O   0  0  0  0  0  0  0  0  0  0  0  0
    8.7400    2.6150   23.8410 O   0  0  0  0  0  0  0  0  0  0  0  0
    7.7530    1.5310   26.0710 O   0  0  0  0  0  0  0  0  0  0  0  0
    7.9420   -3.1830   26.3310 O   0  0  0  0  0  0  0  0  0  0  0  0
    8.5490   -0.5220   16.9270 O   0  0  0  0  0  0  0  0  0  0  0  0
   11.1980   -0.9570   16.3190 O   0  0  0  0  0  0  0  0  0  0  0  0
   12.7490    4.1420   22.3190 C   0  0  1  0  0  0  0  0  0  0  0  0
   13.1230    4.8630   21.0050 C   0  0  2  0  0  0  0  0  0  0  0  0
   12.7160    3.9930   19.8000 C   0  0  1  0  0  0  0  0  0  0  0  0
   11.2260    3.6200   19.8980 C   0  0  2  0  0  0  0  0  0  0  0  0
   14.0530    4.1210   26.8250 C   0  0  1  0  0  0  0  0  0  0  0  0
   14.1040    5.1280   25.6590 C   0  0  2  0  0  0  0  0  0  0  0  0
   15.3350    3.2650   26.8280 C   0  0  1  0  0  0  0  0  0  0  0  0
   16.5960    4.1530   26.8280 C   0  0  2  0  0  0  0  0  0  0  0  0
   10.9880    2.9120   21.2450 C   0  0  1  0  0  0  0  0  0  0  0  0
   13.0580    5.0610   23.5120 C   0  0  0  0  0  0  0  0  0  0  0  0
   16.5100    5.1760   25.6740 C   0  0  2  0  0  0  0  0  0  0  0  0
   17.7150    6.1290   25.7230 C   0  0  0  0  0  0  0  0  0  0  0  0
    9.3900    1.3280   22.0850 C   0  0  0  0  0  0  0  0  0  0  0  0
    9.6130    0.0510   21.6200 C   0  0  0  0  0  0  0  0  0  0  0  0
    8.9050    1.4730   23.4140 C   0  0  0  0  0  0  0  0  0  0  0  0
    8.6260    0.2920   24.2050 C   0  0  0  0  0  0  0  0  0  0  0  0
   10.0640   -0.2260   20.2330 C   0  0  0  0  0  0  0  0  0  0  0  0
    8.9310   -0.9460   23.6370 C   0  0  0  0  0  0  0  0  0  0  0  0
    8.0770    0.3440   25.4970 C   0  0  0  0  0  0  0  0  0  0  0  0
    8.6950   -2.0990   24.3640 C   0  0  0  0  0  0  0  0  0  0  0  0
    9.1190   -0.2490   19.2150 C   0  0  0  0  0  0  0  0  0  0  0  0
   11.3960   -0.4410   19.9050 C   0  0  0  0  0  0  0  0  0  0  0  0
    7.8560   -0.8120   26.1970 C   0  0  0  0  0  0  0  0  0  0  0  0
    8.1650   -2.0410   25.6330 C   0  0  0  0  0  0  0  0  0  0  0  0
    9.4890   -0.4950   17.9140 C   0  0  0  0  0  0  0  0  0  0  0  0
   11.7720   -0.6830   18.6050 C   0  0  0  0  0  0  0  0  0  0  0  0
   10.8240   -0.7140   17.6050 C   0  0  0  0  0  0  0  0  0  0  0  0
   13.2900    3.3030   22.3810 H   0  0  0  0  0  0  0  0  0  0  0  0
   12.6320    5.7330   20.9720 H   0  0  0  0  0  0  0  0  0  0  0  0
   13.2600    3.1540   19.8090 H   0  0  0  0  0  0  0  0  0  0  0  0
   10.6650    4.4460   19.8450 H   0  0  0  0  0  0  0  0  0  0  0  0
   13.2630    3.5190   26.7060 H   0  0  0  0  0  0  0  0  0  0  0  0
   13.3280    5.7560   25.7060 H   0  0  0  0  0  0  0  0  0  0  0  0
   15.3430    2.7140   25.9950 H   0  0  0  0  0  0  0  0  0  0  0  0
   16.6570    4.6580   27.6890 H   0  0  0  0  0  0  0  0  0  0  0  0
   11.5680    2.1000   21.2940 H   0  0  0  0  0  0  0  0  0  0  0  0
   16.5140    4.6720   24.8100 H   0  0  0  0  0  0  0  0  0  0  0  0
   14.7620    5.9720   21.4590 H   0  0  0  0  0  0  0  0  0  0  0  0
   13.0000    5.6870   18.7170 H   0  0  0  0  0  0  0  0  0  0  0  0
    9.9210    2.4010   18.9330 H   0  0  0  0  0  0  0  0  0  0  0  0
   14.6510    4.5890   28.7090 H   0  0  0  0  0  0  0  0  0  0  0  0
   15.7650    2.8420   28.7670 H   0  0  0  0  0  0  0  0  0  0  0  0
   17.8740    2.7250   27.5020 H   0  0  0  0  0  0  0  0  0  0  0  0
    7.0180    1.9990   25.5750 H   0  0  0  0  0  0  0  0  0  0  0  0
    7.4850   -2.9950   27.2080 H   0  0  0  0  0  0  0  0  0  0  0  0
    8.8050   -1.1600   16.1920 H   0  0  0  0  0  0  0  0  0  0  0  0
   10.6170   -1.6580   15.8930 H   0  0  0  0  0  0  0  0  0  0  0  0
   13.4510    5.9180   23.1780 H   0  0  0  0  0  0  0  0  0  0  0  0
   12.2080    5.2460   24.0060 H   0  0  0  0  0  0  0  0  0  0  0  0
   18.2970    5.8780   26.4970 H   0  0  0  0  0  0  0  0  0  0  0  0
   18.2370    6.0580   24.8730 H   0  0  0  0  0  0  0  0  0  0  0  0
   17.3960    7.0700   25.8320 H   0  0  0  0  0  0  0  0  0  0  0  0
    8.9130   -2.9880   23.9620 H   0  0  0  0  0  0  0  0  0  0  0  0
    8.1560   -0.0850   19.4310 H   0  0  0  0  0  0  0  0  0  0  0  0
   12.0910   -0.4180   20.6230 H   0  0  0  0  0  0  0  0  0  0  0  0
    7.4710   -0.7700   27.1190 H   0  0  0  0  0  0  0  0  0  0  0  0
   12.7350   -0.8370   18.3850 H   0  0  0  0  0  0  0  0  0  0  0  0
  1 17  1  0  0  0  0
  1 25  1  0  0  0  0
  2 22  1  0  0  0  0
  2 26  1  0  0  0  0
  3 22  1  0  0  0  0
  3 27  1  0  0  0  0
  4 18  1  0  0  0  0
  4 54  1  0  0  0  0
  5 19  1  0  0  0  0
  5 55  1  0  0  0  0
  6 25  1  0  0  0  0
  6 29  1  0  0  0  0
  7 20  1  0  0  0  0
  7 56  1  0  0  0  0
  8 21  1  0  0  0  0
  8 57  1  0  0  0  0
  9 23  1  0  0  0  0
  9 58  1  0  0  0  0
 10 24  1  0  0  0  0
 10 59  1  0  0  0  0
 11 30  1  0  0  0  0
 11 34  1  0  0  0  0
 12 31  2  0  0  0  0
 13 35  1  0  0  0  0
 13 60  1  0  0  0  0
 14 40  1  0  0  0  0
 14 61  1  0  0  0  0
 15 41  1  0  0  0  0
 15 62  1  0  0  0  0
 16 43  1  0  0  0  0
 16 63  1  0  0  0  0
 17 18  1  6  0  0  0
 17 26  1  0  0  0  0
 17 44  1  0  0  0  0
 18 19  1  6  0  0  0
 18 45  1  0  0  0  0
 19 20  1  1  0  0  0
 19 46  1  0  0  0  0
 20 25  1  1  0  0  0
 20 47  1  0  0  0  0
 21 22  1  6  0  0  0
 21 48  1  0  0  0  0
 22 49  1  1  0  0  0
 23 21  1  1  0  0  0
 23 50  1  0  0  0  0
 24 23  1  1  0  0  0
 24 51  1  0  0  0  0
 25 52  1  1  0  0  0
 26 64  1  0  0  0  0
 26 65  1  0  0  0  0
 27 24  1  1  0  0  0
 27 28  1  0  0  0  0
 27 53  1  0  0  0  0
 28 66  1  0  0  0  0
 28 67  1  0  0  0  0
 28 68  1  0  0  0  0
 29 30  2  0  0  0  0
 29 31  1  0  0  0  0
 30 33  1  0  0  0  0
 31 32  1  0  0  0  0
 32 34  2  0  0  0  0
 32 35  1  0  0  0  0
 33 37  2  0  0  0  0
 33 38  1  0  0  0  0
 34 36  1  0  0  0  0
 35 39  2  0  0  0  0
 36 40  2  0  0  0  0
 36 69  1  0  0  0  0
 37 41  1  0  0  0  0
 37 70  1  0  0  0  0
 38 42  2  0  0  0  0
 38 71  1  0  0  0  0
 39 40  1  0  0  0  0
 39 72  1  0  0  0  0
 41 43  2  0  0  0  0
 42 43  1  0  0  0  0
 42 73  1  0  0  0  0
M  END
>  <HEADER>
                                                                          

>  <TITLE>
    Rutin_D                                                               

>  <MASTER>
        0    0    0    0    0    0    0    0   73    0   73    0          

$$$$
