W_DAR_D
  xed2sdf_05210316543D
 
 82 86  0  0  1  0  0  0  0  0999 V2000
  -52.2164   -2.4182   13.7972 O   0  0  0  0  0  0  0  0  0  0  0  0
  -51.0104   -2.2922   13.9242 C   0  0  0  0  0  0  0  0  0  0  0  0
  -50.1444   -3.4032   14.4692 C   0  0  0  0  0  0  0  0  0  0  0  0
  -49.0264   -2.8392   15.3472 C   0  0  0  0  0  0  0  0  0  0  0  0
  -48.2034   -1.9232   14.4362 C   0  0  0  0  0  0  0  0  0  0  0  0
  -47.1234   -1.3422   15.2482 N   0  0  0  0  0  0  0  0  0  0  0  0
  -47.3274   -0.1902   16.1432 C   0  0  0  0  0  0  0  0  0  0  0  0
  -46.1084   -0.5092   17.0282 C   0  0  0  0  0  0  0  0  0  0  0  0
  -45.5404    0.4598   18.0422 C   0  0  0  0  0  0  0  0  0  0  0  0
  -46.4114    1.4378   18.4242 N   0  0  0  0  0  0  0  0  0  0  0  0
  -47.5484    1.1008   19.2902 C   0  0  0  0  0  0  0  0  0  0  0  0
  -48.7444    1.9918   18.9122 C   0  0  0  0  0  0  0  0  0  0  0  0
  -49.7494    1.2088   18.0522 C   0  0  0  0  0  0  0  0  0  0  0  0
  -50.8534    2.1598   17.5662 C   0  0  0  0  0  0  0  0  0  0  0  0
  -51.4324    1.6528   16.2362 C   0  0  0  0  0  0  0  0  0  0  0  0
  -52.5464    2.6008   15.7602 C   0  0  0  0  0  0  0  0  0  0  0  0
  -52.1314    3.2958   14.5332 N   0  0  0  0  0  0  0  0  0  0  0  0
  -52.9994    4.1018   13.8852 C   0  0  0  0  0  0  0  0  0  0  0  0
  -54.1574    4.2988   14.2472 O   0  0  0  0  0  0  0  0  0  0  0  0
  -52.5604    4.7788   12.6432 C   0  0  0  0  0  0  0  0  0  0  0  0
  -51.5214    5.6828   12.6942 C   0  0  0  0  0  0  0  0  0  0  0  0
  -51.1194    6.3308   11.5542 C   0  0  0  0  0  0  0  0  0  0  0  0
  -51.6824    6.1368   10.3452 N   0  0  0  0  0  0  0  0  0  0  0  0
  -52.6854    5.2438   10.3092 C   0  0  0  0  0  0  0  0  0  0  0  0
  -53.1534    4.5458   11.4092 C   0  0  0  0  0  0  0  0  0  0  0  0
  -54.1774    3.5978   11.2792 N   0  0  0  0  0  0  0  0  0  0  0  0
  -54.1664    2.4968   10.5002 C   0  0  0  0  0  0  0  0  0  0  0  0
  -53.2814    2.1928    9.7162 O   0  0  0  0  0  0  0  0  0  0  0  0
  -55.3974    1.6338   10.6782 C   0  0  0  0  0  0  0  0  0  0  0  0
  -55.7574    0.9488    9.3702 C   0  0  0  0  0  0  0  0  0  0  0  0
  -56.0624    1.6978    8.2552 C   0  0  0  0  0  0  0  0  0  0  0  0
  -56.3944    1.0748    7.0732 C   0  0  0  0  0  0  0  0  0  0  0  0
  -56.4254   -0.2992    7.0032 C   0  0  0  0  0  0  0  0  0  0  0  0
  -56.1224   -1.0502    8.1172 C   0  0  0  0  0  0  0  0  0  0  0  0
  -56.1644   -2.7872    8.0332 Cl  0  0  0  0  0  0  0  0  0  0  0  0
  -55.7884   -0.4262    9.2982 C   0  0  0  0  0  0  0  0  0  0  0  0
  -44.2804    0.2908   18.4752 C   0  0  0  0  0  0  0  0  0  0  0  0
  -43.4724   -0.8102   17.9482 C   0  0  0  0  0  0  0  0  0  0  0  0
  -43.8114   -1.3802   16.7932 C   0  0  0  0  0  0  0  0  0  0  0  0
  -45.0194   -0.9082   16.0282 C   0  0  0  0  0  0  0  0  0  0  0  0
  -45.8684   -1.8142   15.1852 C   0  0  0  0  0  0  0  0  0  0  0  0
  -45.4834   -2.7912   14.5582 O   0  0  0  0  0  0  0  0  0  0  0  0
  -49.0434   -0.8552   13.7652 C   0  0  0  0  0  0  0  0  0  0  0  0
  -48.5624    0.2108   13.4232 O   0  0  0  0  0  0  0  0  0  0  0  0
  -50.3484   -1.1612   13.5882 N   0  0  0  0  0  0  0  0  0  0  0  0
  -47.8204   -2.4582   13.6842 H   0  0  0  0  0  0  0  0  0  0  0  0
  -46.4504   -1.1902   17.6752 H   0  0  0  0  0  0  0  0  0  0  0  0
  -44.5484   -0.2562   15.4332 H   0  0  0  0  0  0  0  0  0  0  0  0
  -49.7424   -3.9112   13.7072 H   0  0  0  0  0  0  0  0  0  0  0  0
  -50.7134   -4.0092   15.0252 H   0  0  0  0  0  0  0  0  0  0  0  0
  -48.4574   -3.5792   15.7072 H   0  0  0  0  0  0  0  0  0  0  0  0
  -49.3924   -2.3432   16.1342 H   0  0  0  0  0  0  0  0  0  0  0  0
  -48.1964   -0.2262   16.6382 H   0  0  0  0  0  0  0  0  0  0  0  0
  -47.3844    0.7198   15.7322 H   0  0  0  0  0  0  0  0  0  0  0  0
  -46.4704    2.1598   17.9222 H   0  0  0  0  0  0  0  0  0  0  0  0
  -47.3014    1.2548   20.2472 H   0  0  0  0  0  0  0  0  0  0  0  0
  -47.7934    0.1388   19.1692 H   0  0  0  0  0  0  0  0  0  0  0  0
  -48.4164    2.7858   18.3992 H   0  0  0  0  0  0  0  0  0  0  0  0
  -49.2014    2.2908   19.7502 H   0  0  0  0  0  0  0  0  0  0  0  0
  -50.1534    0.4728   18.5962 H   0  0  0  0  0  0  0  0  0  0  0  0
  -49.2774    0.8138   17.2642 H   0  0  0  0  0  0  0  0  0  0  0  0
  -50.4714    3.0748   17.4372 H   0  0  0  0  0  0  0  0  0  0  0  0
  -51.5824    2.1948   18.2502 H   0  0  0  0  0  0  0  0  0  0  0  0
  -51.8064    0.7348   16.3632 H   0  0  0  0  0  0  0  0  0  0  0  0
  -50.7064    1.6258   15.5492 H   0  0  0  0  0  0  0  0  0  0  0  0
  -52.7384    3.2728   16.4752 H   0  0  0  0  0  0  0  0  0  0  0  0
  -53.3694    2.0658   15.5682 H   0  0  0  0  0  0  0  0  0  0  0  0
  -51.3224    3.1648   14.2102 H   0  0  0  0  0  0  0  0  0  0  0  0
  -51.0614    5.8678   13.5622 H   0  0  0  0  0  0  0  0  0  0  0  0
  -50.3654    6.9828   11.6242 H   0  0  0  0  0  0  0  0  0  0  0  0
  -53.1234    5.0708    9.4262 H   0  0  0  0  0  0  0  0  0  0  0  0
  -54.8934    3.7288   11.7732 H   0  0  0  0  0  0  0  0  0  0  0  0
  -56.1624    2.2068   10.9742 H   0  0  0  0  0  0  0  0  0  0  0  0
  -55.2074    0.9348   11.3672 H   0  0  0  0  0  0  0  0  0  0  0  0
  -56.0414    2.6958    8.3042 H   0  0  0  0  0  0  0  0  0  0  0  0
  -56.6134    1.6208    6.2652 H   0  0  0  0  0  0  0  0  0  0  0  0
  -56.6674   -0.7512    6.1452 H   0  0  0  0  0  0  0  0  0  0  0  0
  -55.5674   -0.9722   10.1062 H   0  0  0  0  0  0  0  0  0  0  0  0
  -43.8954    0.9148   19.1542 H   0  0  0  0  0  0  0  0  0  0  0  0
  -42.6714   -1.1322   18.4532 H   0  0  0  0  0  0  0  0  0  0  0  0
  -43.2574   -2.1302   16.4302 H   0  0  0  0  0  0  0  0  0  0  0  0
  -50.8384   -0.5332   13.2132 H   0  0  0  0  0  0  0  0  0  0  0  0
  1  2  2  0
  2  3  1  0
  2 45  1  0
  3  4  1  0
  4  5  1  0
  5  6  1  0
  5 43  1  0
  6  7  1  0
  6 41  1  0
  7  8  1  0
  8  9  1  0
  8 40  1  0
  9 10  1  0
  9 37  2  0
 10 11  1  0
 11 12  1  0
 12 13  1  0
 13 14  1  0
 14 15  1  0
 15 16  1  0
 16 17  1  0
 17 18  1  0
 18 19  2  0
 18 20  1  0
 20 21  2  0
 20 25  1  0
 21 22  1  0
 22 23  2  0
 23 24  1  0
 24 25  2  0
 25 26  1  0
 26 27  1  0
 27 28  2  0
 27 29  1  0
 29 30  1  0
 30 31  2  0
 30 36  1  0
 31 32  1  0
 32 33  2  0
 33 34  1  0
 34 35  1  0
 34 36  2  0
 37 38  1  0
 38 39  2  0
 39 40  1  0
 40 41  1  0
 41 42  2  0
 43 44  2  0
 43 45  1  0
  3 49  1  0
  3 50  1  0
  4 51  1  0
  4 52  1  0
  5 46  1  0
  7 53  1  0
  7 54  1  0
  8 47  1  0
 10 55  1  0
 11 56  1  0
 11 57  1  0
 12 58  1  0
 12 59  1  0
 13 60  1  0
 13 61  1  0
 14 62  1  0
 14 63  1  0
 15 64  1  0
 15 65  1  0
 16 66  1  0
 16 67  1  0
 17 68  1  0
 21 69  1  0
 22 70  1  0
 24 71  1  0
 26 72  1  0
 29 73  1  0
 29 74  1  0
 31 75  1  0
 32 76  1  0
 33 77  1  0
 36 78  1  0
 37 79  1  0
 38 80  1  0
 39 81  1  0
 40 48  1  0
 45 82  1  0
M  END
>  <BioMolTech Lead Finder dG>
-8.501

>  <BioMolTech Lead Finder VSscore>
-12.722

>  <BioMolTech Lead Finder Rank score>
-4.046

>  <BioMolTech Lead Finder LE>
-0.189

>  <BioMolTech Lead Finder Structure Name>
/var/folders/xd/y7jw_xv579q2qqq7kks92xd80000gn/T/LeadFinder_60499_1/Ligand_1.sdf

>  <BioMolTech Lead Finder SDF id>
0

>  <BioMolTech Lead Finder Pose rank>
0

>  <BioMolTech Lead Finder version>
2001 1, 19 January 2019

>  <LF dG>
-8.501

>  <LF VSscore>
-12.722

>  <LF Rank Score>
-4.046

>  <LF LE>
-0.189

>  <Preferred Pose_cresset>
true

>  <Favorite_cresset>
false

>  <Protein_cresset>
6M2N_Monomer_P

>  <MW_cresset>
633.1

>  <#Atoms_cresset>
45

>  <SlogP_cresset>
2.9

>  <TPSA_cresset>
149.6

>  <Flexibility_cresset>
10.4

>  <#RB_cresset>
13

>  <Rof5_cresset>
2

>  <Filename_cresset>
DAR-DIA-9e4459de-1.mol

>  <Confs_cresset>
0

>  <Poses_cresset>
10

>  <_cresset_fieldpoints>
    -5     -53.544472      -3.655722      14.008562    -12.7754
    -5     -52.950954       0.950653       8.413250    -16.8831
    -5     -43.907967      -3.530883      14.341057    -16.8106
    -5     -55.490349       5.667451      14.367206    -11.8147
    -5     -55.655388       5.085646      15.142437    -11.6753
    -5     -51.617065       2.529604       9.015755    -15.1767
    -5     -50.985298       6.939632       8.752512    -11.0011
    -5     -58.981548       0.099565       8.775678     -2.4389
    -5     -54.435616      -3.587181       9.977238     -2.3064
    -5     -56.208721      -3.646795       5.553135     -1.7348
    -5     -42.455612       0.933835      16.541691     -4.5178
    -5     -45.882042      -4.622960      15.439808     -9.9229
    -5     -46.708359       0.398751      13.282571    -13.7426
    -6     -50.950233      -1.283207      17.001001      6.6014
    -6     -49.022034      -2.905547      11.863110      5.6728
    -6     -56.747978       4.148596      11.546875      8.8547
    -6     -51.278969       1.322676      13.056178      7.9704
    -6     -48.982285      -1.687974      18.236774      7.0912
    -6     -47.182369       3.099573      16.413727     11.3536
    -6     -51.367096       1.325803      20.709171      2.8774
    -6     -49.533203       3.802495      14.452655      7.4546
    -6     -53.822384       1.063782      18.023367      3.3089
    -6     -52.141922       4.650703      18.465191      2.7547
    -6     -57.310844       0.648364       4.234088      2.5914
    -7     -52.684250       1.265544      12.783531     -3.8640
    -7     -49.416000      -2.531554      11.324251     -2.0076
    -7     -53.704544      -2.870214       9.990231     -1.4451
    -7     -51.468395      -1.566607      17.187519     -2.7775
    -7     -46.659958      -4.830517      14.189426     -1.9871
    -7     -53.169235      -0.655874      11.826441     -2.4057
    -7     -48.851013      -2.005388      18.545877     -3.1277
    -7     -48.411804       3.011176      15.595776     -3.2315
    -7     -45.088280       3.106359      19.956577     -1.8753
    -7     -49.992241      -0.067409      21.186504     -1.5791
    -7     -50.614845       4.622859      19.631117     -1.5226
    -7     -45.816376      -1.678960      20.147728     -2.3322
    -7     -52.638046      -0.504287      18.521687     -1.7019
    -7     -51.472527       1.340250      20.842037     -1.6091
    -7     -48.711418       2.448403      14.460345     -3.0438
    -7     -50.222290       4.930018      15.709641     -2.8231
    -7     -55.182518       2.070212      13.763138     -2.8417
    -7     -55.760391       5.854334      13.020752     -1.8299
    -7     -56.076530       4.779573       9.655082     -2.6985
    -7     -57.251053       0.535369       3.824219     -0.9773
    -7     -58.778625       0.479741       4.725626     -0.9685
    -7     -52.808067       0.712346       7.891510     -2.3525
    -7     -53.305870       3.269572       7.619188     -2.4011
    -7     -59.144341       0.386239       9.259596     -1.8687
    -7     -45.098465       2.388766      15.781719     -2.4121
    -7     -43.200188      -2.318506      13.743671     -1.5589
    -7     -46.361919      -3.771645      17.279686     -2.6010
    -7     -46.176159       0.419953      13.175085     -2.6051
    -8     -44.744480      -0.513481      17.332500      7.0683
    -8     -49.282871      -2.674249      14.541853      5.5860
    -8     -48.811935       1.276208      18.674473      5.5716
    -8     -49.778088       1.909204      18.179512      5.8013
    -8     -50.610352       1.560947      17.219131      5.7916
    -8     -51.595383       2.178098      16.714828      5.5219
    -8     -52.204731       5.275671      11.887890      5.3624
    -8     -56.090775       0.324185       8.191294      7.1812
    -8     -56.129906      -1.277053       8.108616      5.6056

$$$$
DAR_D
  xed2sdf_05210316543D
 
 82 86  0  0  1  0  0  0  0  0999 V2000
  -57.5377   -3.8605    8.0163 O   0  0  0  0  0  0  0  0  0  0  0  0
  -57.0117   -2.7615    8.0473 C   0  0  0  0  0  0  0  0  0  0  0  0
  -56.2607   -2.2705    9.2623 C   0  0  0  0  0  0  0  0  0  0  0  0
  -56.4917   -0.7745    9.4753 C   0  0  0  0  0  0  0  0  0  0  0  0
  -55.9647   -0.0865    8.2123 C   0  0  0  0  0  0  0  0  0  0  0  0
  -56.1847    1.3595    8.3673 N   0  0  0  0  0  0  0  0  0  0  0  0
  -55.0867    2.3125    8.6043 C   0  0  0  0  0  0  0  0  0  0  0  0
  -55.8707    3.5295    8.0803 C   0  0  0  0  0  0  0  0  0  0  0  0
  -55.4177    4.9595    8.2783 C   0  0  0  0  0  0  0  0  0  0  0  0
  -54.0897    5.0865    8.5653 N   0  0  0  0  0  0  0  0  0  0  0  0
  -53.6767    5.7095    9.8303 C   0  0  0  0  0  0  0  0  0  0  0  0
  -53.9257    4.7175   10.9793 C   0  0  0  0  0  0  0  0  0  0  0  0
  -53.0167    3.4865   10.8343 C   0  0  0  0  0  0  0  0  0  0  0  0
  -51.6147    3.8235   11.3673 C   0  0  0  0  0  0  0  0  0  0  0  0
  -50.8037    2.5325   11.5573 C   0  0  0  0  0  0  0  0  0  0  0  0
  -50.2767    2.4575   13.0003 C   0  0  0  0  0  0  0  0  0  0  0  0
  -50.3887    1.0835   13.5103 N   0  0  0  0  0  0  0  0  0  0  0  0
  -49.3677    0.2165   13.3483 C   0  0  0  0  0  0  0  0  0  0  0  0
  -48.3157    0.4915   12.7743 O   0  0  0  0  0  0  0  0  0  0  0  0
  -49.5117   -1.1665   13.8593 C   0  0  0  0  0  0  0  0  0  0  0  0
  -50.7177   -1.8195   13.7193 C   0  0  0  0  0  0  0  0  0  0  0  0
  -50.8687   -3.0925   14.2053 C   0  0  0  0  0  0  0  0  0  0  0  0
  -49.8887   -3.7775   14.8273 N   0  0  0  0  0  0  0  0  0  0  0  0
  -48.7157   -3.1325   14.9453 C   0  0  0  0  0  0  0  0  0  0  0  0
  -48.4757   -1.8495   14.4833 C   0  0  0  0  0  0  0  0  0  0  0  0
  -47.2097   -1.2635   14.6073 N   0  0  0  0  0  0  0  0  0  0  0  0
  -46.6927   -0.6775   15.7063 C   0  0  0  0  0  0  0  0  0  0  0  0
  -47.2877   -0.4935   16.7573 O   0  0  0  0  0  0  0  0  0  0  0  0
  -45.2557   -0.2385   15.5233 C   0  0  0  0  0  0  0  0  0  0  0  0
  -44.4107   -0.6825   16.7053 C   0  0  0  0  0  0  0  0  0  0  0  0
  -44.1107   -2.0155   16.8833 C   0  0  0  0  0  0  0  0  0  0  0  0
  -43.3507   -2.4165   17.9583 C   0  0  0  0  0  0  0  0  0  0  0  0
  -42.8897   -1.4855   18.8613 C   0  0  0  0  0  0  0  0  0  0  0  0
  -43.1887   -0.1535   18.6873 C   0  0  0  0  0  0  0  0  0  0  0  0
  -42.6097    1.0245   19.8283 Cl  0  0  0  0  0  0  0  0  0  0  0  0
  -43.9477    0.2465   17.6093 C   0  0  0  0  0  0  0  0  0  0  0  0
  -56.3147    5.9525    8.1613 C   0  0  0  0  0  0  0  0  0  0  0  0
  -57.7127    5.6385    7.8623 C   0  0  0  0  0  0  0  0  0  0  0  0
  -58.1757    4.4125    8.0983 C   0  0  0  0  0  0  0  0  0  0  0  0
  -57.2747    3.3455    8.6633 C   0  0  0  0  0  0  0  0  0  0  0  0
  -57.4177    1.8875    8.3393 C   0  0  0  0  0  0  0  0  0  0  0  0
  -58.4627    1.2985    8.1013 O   0  0  0  0  0  0  0  0  0  0  0  0
  -56.5977   -0.6235    6.9443 C   0  0  0  0  0  0  0  0  0  0  0  0
  -56.6987    0.0645    5.9433 O   0  0  0  0  0  0  0  0  0  0  0  0
  -57.0507   -1.8965    7.0093 N   0  0  0  0  0  0  0  0  0  0  0  0
  -54.9887   -0.2795    8.1113 H   0  0  0  0  0  0  0  0  0  0  0  0
  -55.7457    3.4895    7.0883 H   0  0  0  0  0  0  0  0  0  0  0  0
  -57.4957    3.4875    9.6283 H   0  0  0  0  0  0  0  0  0  0  0  0
  -55.2837   -2.4395    9.1353 H   0  0  0  0  0  0  0  0  0  0  0  0
  -56.5947   -2.7635   10.0663 H   0  0  0  0  0  0  0  0  0  0  0  0
  -55.9947   -0.4545   10.2823 H   0  0  0  0  0  0  0  0  0  0  0  0
  -57.4587   -0.5695    9.6283 H   0  0  0  0  0  0  0  0  0  0  0  0
  -54.2667    2.1095    8.0693 H   0  0  0  0  0  0  0  0  0  0  0  0
  -54.7007    2.3645    9.5253 H   0  0  0  0  0  0  0  0  0  0  0  0
  -53.5187    5.0895    7.8943 H   0  0  0  0  0  0  0  0  0  0  0  0
  -54.2057    6.5445    9.9843 H   0  0  0  0  0  0  0  0  0  0  0  0
  -52.7047    5.9425    9.7913 H   0  0  0  0  0  0  0  0  0  0  0  0
  -54.8827    4.4265   10.9633 H   0  0  0  0  0  0  0  0  0  0  0  0
  -53.7197    5.1695   11.8463 H   0  0  0  0  0  0  0  0  0  0  0  0
  -52.9567    3.2255    9.8703 H   0  0  0  0  0  0  0  0  0  0  0  0
  -53.3987    2.7255   11.3573 H   0  0  0  0  0  0  0  0  0  0  0  0
  -51.6967    4.2985   12.2433 H   0  0  0  0  0  0  0  0  0  0  0  0
  -51.1457    4.4125   10.7093 H   0  0  0  0  0  0  0  0  0  0  0  0
  -50.0337    2.5255   10.9193 H   0  0  0  0  0  0  0  0  0  0  0  0
  -51.3907    1.7435   11.3793 H   0  0  0  0  0  0  0  0  0  0  0  0
  -50.8107    3.0725   13.5803 H   0  0  0  0  0  0  0  0  0  0  0  0
  -49.3147    2.7315   13.0103 H   0  0  0  0  0  0  0  0  0  0  0  0
  -51.1337    0.8225   13.9023 H   0  0  0  0  0  0  0  0  0  0  0  0
  -51.4827   -1.3645   13.2633 H   0  0  0  0  0  0  0  0  0  0  0  0
  -51.7567   -3.5385   14.0913 H   0  0  0  0  0  0  0  0  0  0  0  0
  -47.9627   -3.6125   15.3973 H   0  0  0  0  0  0  0  0  0  0  0  0
  -46.6927   -1.3005   13.8953 H   0  0  0  0  0  0  0  0  0  0  0  0
  -45.2217    0.7575   15.4463 H   0  0  0  0  0  0  0  0  0  0  0  0
  -44.8927   -0.6575   14.6913 H   0  0  0  0  0  0  0  0  0  0  0  0
  -44.4457   -2.6935   16.2293 H   0  0  0  0  0  0  0  0  0  0  0  0
  -43.1337   -3.3845   18.0843 H   0  0  0  0  0  0  0  0  0  0  0  0
  -42.3387   -1.7775   19.6433 H   0  0  0  0  0  0  0  0  0  0  0  0
  -44.1627    1.2155   17.4833 H   0  0  0  0  0  0  0  0  0  0  0  0
  -56.0277    6.9035    8.2773 H   0  0  0  0  0  0  0  0  0  0  0  0
  -58.3157    6.3405    7.4833 H   0  0  0  0  0  0  0  0  0  0  0  0
  -59.1317    4.1975    7.8993 H   0  0  0  0  0  0  0  0  0  0  0  0
  -57.4327   -2.2005    6.2763 H   0  0  0  0  0  0  0  0  0  0  0  0
  1  2  2  0
  2  3  1  0
  2 45  1  0
  3  4  1  0
  4  5  1  0
  5  6  1  0
  5 43  1  0
  6  7  1  0
  6 41  1  0
  7  8  1  0
  8  9  1  0
  8 40  1  0
  9 10  1  0
  9 37  2  0
 10 11  1  0
 11 12  1  0
 12 13  1  0
 13 14  1  0
 14 15  1  0
 15 16  1  0
 16 17  1  0
 17 18  1  0
 18 19  2  0
 18 20  1  0
 20 21  2  0
 20 25  1  0
 21 22  1  0
 22 23  2  0
 23 24  1  0
 24 25  2  0
 25 26  1  0
 26 27  1  0
 27 28  2  0
 27 29  1  0
 29 30  1  0
 30 31  2  0
 30 36  1  0
 31 32  1  0
 32 33  2  0
 33 34  1  0
 34 35  1  0
 34 36  2  0
 37 38  1  0
 38 39  2  0
 39 40  1  0
 40 41  1  0
 41 42  2  0
 43 44  2  0
 43 45  1  0
  3 49  1  0
  3 50  1  0
  4 51  1  0
  4 52  1  0
  5 46  1  0
  7 53  1  0
  7 54  1  0
  8 47  1  0
 10 55  1  0
 11 56  1  0
 11 57  1  0
 12 58  1  0
 12 59  1  0
 13 60  1  0
 13 61  1  0
 14 62  1  0
 14 63  1  0
 15 64  1  0
 15 65  1  0
 16 66  1  0
 16 67  1  0
 17 68  1  0
 21 69  1  0
 22 70  1  0
 24 71  1  0
 26 72  1  0
 29 73  1  0
 29 74  1  0
 31 75  1  0
 32 76  1  0
 33 77  1  0
 36 78  1  0
 37 79  1  0
 38 80  1  0
 39 81  1  0
 40 48  1  0
 45 82  1  0
M  END
>  <BioMolTech Lead Finder dG>
-7.621

>  <BioMolTech Lead Finder VSscore>
-9.428

>  <BioMolTech Lead Finder Rank score>
-2.931

>  <BioMolTech Lead Finder LE>
-0.169

>  <BioMolTech Lead Finder Structure Name>
/var/folders/xd/y7jw_xv579q2qqq7kks92xd80000gn/T/LeadFinder_57666_1/Ligand_1.sdf

>  <BioMolTech Lead Finder SDF id>
0

>  <BioMolTech Lead Finder Pose rank>
0

>  <BioMolTech Lead Finder version>
2001 1, 19 January 2019

>  <LF dG>
-7.621

>  <LF VSscore>
-9.428

>  <LF Rank Score>
-2.931

>  <LF LE>
-0.169

>  <Preferred Pose_cresset>
true

>  <Favorite_cresset>
false

>  <Protein_cresset>
6M2N_Monomer_P

>  <MW_cresset>
633.1

>  <#Atoms_cresset>
45

>  <SlogP_cresset>
2.9

>  <TPSA_cresset>
149.6

>  <Flexibility_cresset>
10.4

>  <#RB_cresset>
13

>  <Rof5_cresset>
2

>  <Filename_cresset>
DAR-DIA-9e4459de-1.mol

>  <Confs_cresset>
0

>  <Poses_cresset>
10

>  <_cresset_fieldpoints>
    -5     -57.884003      -5.359516       8.994749    -13.5365
    -5     -60.114075       1.796509       7.817093    -17.5918
    -5     -58.342445       1.015501       6.211281    -19.1751
    -5     -47.283627       1.592444      11.596478    -11.3052
    -5     -46.921799      -0.104089      18.495678    -16.3522
    -5     -48.862484      -0.882360      17.564613    -15.3653
    -5     -50.181049      -5.497574      15.616205    -10.4579
    -5     -41.025459      -0.679910      16.464958     -2.3203
    -5     -41.808693      -0.088483      22.067776     -1.6791
    -5     -57.788185       6.018522      10.305058     -4.7409
    -6     -53.529800       0.210458       9.900406      9.2243
    -6     -52.542667       3.635570       7.120914     10.9264
    -6     -51.286362       6.838449      11.488148      3.6247
    -6     -52.917255       0.176696      13.644583      9.7619
    -6     -44.238663       2.710842      15.870812      3.6183
    -6     -41.803635      -4.235416      19.758957      2.7519
    -6     -45.168015      -2.332108      13.369907     10.0531
    -6     -57.479858       8.716005       7.584646      1.1420
    -6     -57.731583      -3.047036       4.585999      4.9030
    -7     -54.346344      -2.538954       6.537021     -2.0062
    -7     -56.193085       2.001659      11.536541     -3.2510
    -7     -47.284760      -1.323382      11.349836     -1.9072
    -7     -59.418938      -0.853708       7.854887     -2.6000
    -7     -56.142876      -5.520768       9.176397     -1.1361
    -7     -53.342270       0.204967      10.427575     -3.3687
    -7     -54.973133       1.590737       5.461896     -2.3666
    -7     -57.491520       2.257658       5.484912     -2.5873
    -7     -51.643921       6.976641      12.119320     -1.8419
    -7     -53.260971       3.431929       6.043295     -1.8430
    -7     -51.773567       3.293318       7.763985     -2.5253
    -7     -53.388451       2.133575      13.846861     -2.4092
    -7     -47.952187       1.862870      15.273306     -2.8965
    -7     -50.212547      -0.493720      10.590252     -2.3241
    -7     -47.424793       2.160180      11.201977     -1.7096
    -7     -48.698921       5.168720      11.840412     -1.5331
    -7     -53.171249       0.197829      12.187344     -2.9325
    -7     -48.453182      -3.155016      11.341955     -1.5726
    -7     -46.929863       1.757683      17.570057     -2.0226
    -7     -45.411915      -3.441345      14.149290     -2.5722
    -7     -41.648243      -4.348876      20.179981     -0.9775
    -7     -41.227547      -0.875233      21.735386     -1.2903
    -7     -47.160995      -2.591252      17.940035     -2.6485
    -7     -41.071053      -0.591600      15.890881     -1.8618
    -7     -53.818157       7.484592       7.074698     -1.7820
    -7     -57.073738       5.768810      10.957867     -2.8665
    -7     -54.865826       5.477199       5.482872     -1.8444
    -7     -60.147778       2.226851       9.607283     -1.6479
    -8     -56.801762       4.566229       8.196983      7.0818
    -8     -56.201248      -1.238151       8.808538      5.5661
    -8     -52.799316       4.306266      10.964283      5.9343
    -8     -51.882278       3.175726      11.256372      5.8012
    -8     -49.708096      -2.066991      14.164933      5.3634
    -8     -51.028389       3.092380      11.986639      5.5853
    -8     -43.651787      -1.083415      17.781977      7.1844
    -8     -43.112518       0.002027      18.835766      5.6053

$$$$
W_Baicalein_D
  xed2sdf_05210316543D
 
 30 32  0  0  0  0  0  0  0  0999 V2000
  -46.6637   -2.5255   17.3529 O   0  0  0  0  0  0  0  0  0  0  0  0
  -48.3407   -1.0535   13.0539 O   0  0  0  0  0  0  0  0  0  0  0  0
  -50.1227   -3.0865   13.1009 O   0  0  0  0  0  0  0  0  0  0  0  0
  -50.1997   -4.8125   15.2349 O   0  0  0  0  0  0  0  0  0  0  0  0
  -46.3457    0.2105   14.3969 O   0  0  0  0  0  0  0  0  0  0  0  0
  -47.4567   -1.7185   15.1999 C   0  0  0  0  0  0  0  0  0  0  0  0
  -47.4967   -2.6095   16.2779 C   0  0  0  0  0  0  0  0  0  0  0  0
  -45.7187   -1.5305   17.3729 C   0  0  0  0  0  0  0  0  0  0  0  0
  -48.3487   -1.8905   14.1279 C   0  0  0  0  0  0  0  0  0  0  0  0
  -46.4707   -0.6535   15.2639 C   0  0  0  0  0  0  0  0  0  0  0  0
  -45.6007   -0.6015   16.3809 C   0  0  0  0  0  0  0  0  0  0  0  0
  -44.8067   -1.5085   18.5469 C   0  0  0  0  0  0  0  0  0  0  0  0
  -48.4217   -3.6365   16.2699 C   0  0  0  0  0  0  0  0  0  0  0  0
  -49.2557   -2.9215   14.1459 C   0  0  0  0  0  0  0  0  0  0  0  0
  -49.2967   -3.7975   15.2209 C   0  0  0  0  0  0  0  0  0  0  0  0
  -43.5287   -2.0505   18.5229 C   0  0  0  0  0  0  0  0  0  0  0  0
  -45.2497   -0.9255   19.7249 C   0  0  0  0  0  0  0  0  0  0  0  0
  -42.7267   -2.0085   19.6369 C   0  0  0  0  0  0  0  0  0  0  0  0
  -44.4467   -0.8835   20.8389 C   0  0  0  0  0  0  0  0  0  0  0  0
  -43.1827   -1.4255   20.7979 C   0  0  0  0  0  0  0  0  0  0  0  0
  -47.5987   -1.2665   12.4139 H   0  0  0  0  0  0  0  0  0  0  0  0
  -49.8477   -2.5355   12.3049 H   0  0  0  0  0  0  0  0  0  0  0  0
  -50.3247   -5.1815   16.1619 H   0  0  0  0  0  0  0  0  0  0  0  0
  -44.9047    0.1145   16.4429 H   0  0  0  0  0  0  0  0  0  0  0  0
  -48.4557   -4.2735   17.0409 H   0  0  0  0  0  0  0  0  0  0  0  0
  -43.1877   -2.4755   17.6849 H   0  0  0  0  0  0  0  0  0  0  0  0
  -46.1667   -0.5295   19.7639 H   0  0  0  0  0  0  0  0  0  0  0  0
  -41.8077   -2.4025   19.6049 H   0  0  0  0  0  0  0  0  0  0  0  0
  -44.7807   -0.4585   21.6799 H   0  0  0  0  0  0  0  0  0  0  0  0
  -42.5967   -1.3955   21.6079 H   0  0  0  0  0  0  0  0  0  0  0  0
  1  7  1  0
  1  8  1  0
  2  9  1  0
  3 14  1  0
  4 15  1  0
  5 10  2  0
  6  7  2  0
  6  9  1  0
  6 10  1  0
  7 13  1  0
  8 11  2  0
  8 12  1  0
  9 14  2  0
 10 11  1  0
 12 16  2  0
 12 17  1  0
 13 15  2  0
 14 15  1  0
 16 18  1  0
 17 19  2  0
 18 20  2  0
 19 20  1  0
  2 21  1  0
  3 22  1  0
  4 23  1  0
 11 24  1  0
 13 25  1  0
 16 26  1  0
 17 27  1  0
 18 28  1  0
 19 29  1  0
 20 30  1  0
M  END
>  <BioMolTech Lead Finder dG>
-6.141

>  <BioMolTech Lead Finder VSscore>
-7.544

>  <BioMolTech Lead Finder Rank score>
-8.877

>  <BioMolTech Lead Finder LE>
-0.307

>  <BioMolTech Lead Finder Structure Name>
/var/folders/xd/y7jw_xv579q2qqq7kks92xd80000gn/T/LeadFinder_61397_1/Ligand_1.sdf

>  <BioMolTech Lead Finder SDF id>
0

>  <BioMolTech Lead Finder Pose rank>
0

>  <BioMolTech Lead Finder version>
2001 1, 19 January 2019

>  <PUBCHEM_COMPOUND_CID>
5281605

>  <PUBCHEM_COMPOUND_CANONICALIZED>
1

>  <PUBCHEM_CACTVS_COMPLEXITY>
413

>  <PUBCHEM_CACTVS_HBOND_ACCEPTOR>
5

>  <PUBCHEM_CACTVS_HBOND_DONOR>
3

>  <PUBCHEM_CACTVS_ROTATABLE_BOND>
1

>  <PUBCHEM_CACTVS_SUBSKEYS>
AAADccBwOAAAAAAAAAAAAAAAAAAAAAAAAAAwYIAAAAAAAACBQAAAGgAACAAADASAmAAwBoAABgCIAqBSAAACCAAkIAAIiAEGiMgNJzaGNRqCeWGl4BUJuQfK7LzOIQABCAAIQABCAAIQABCAAAAAAAAAAA==

>  <PUBCHEM_IUPAC_OPENEYE_NAME>
5,6,7-trihydroxy-2-phenyl-chromen-4-one

>  <PUBCHEM_IUPAC_CAS_NAME>
5,6,7-trihydroxy-2-phenyl-1-benzopyran-4-one

>  <PUBCHEM_IUPAC_NAME_MARKUP>
5,6,7-trihydroxy-2-phenylchromen-4-one

>  <PUBCHEM_IUPAC_NAME>
5,6,7-trihydroxy-2-phenylchromen-4-one

>  <PUBCHEM_IUPAC_SYSTEMATIC_NAME>
5,6,7-tris(oxidanyl)-2-phenyl-chromen-4-one

>  <PUBCHEM_IUPAC_TRADITIONAL_NAME>
5,6,7-trihydroxy-2-phenyl-chromone

>  <PUBCHEM_IUPAC_INCHI>
InChI=1S/C15H10O5/c16-9-6-11(8-4-2-1-3-5-8)20-12-7-10(17)14(18)15(19)13(9)12/h1-7,17-19H

>  <PUBCHEM_IUPAC_INCHIKEY>
FXNFHKRTJBSTCS-UHFFFAOYSA-N

>  <PUBCHEM_XLOGP3>
1.7

>  <PUBCHEM_EXACT_MASS>
270.052823

>  <PUBCHEM_MOLECULAR_FORMULA>
C15H10O5

>  <PUBCHEM_MOLECULAR_WEIGHT>
270.24

>  <PUBCHEM_OPENEYE_CAN_SMILES>
C1=CC=C(C=C1)C2=CC(=O)C3=C(O2)C=C(C(=C3O)O)O

>  <PUBCHEM_OPENEYE_ISO_SMILES>
C1=CC=C(C=C1)C2=CC(=O)C3=C(O2)C=C(C(=C3O)O)O

>  <PUBCHEM_CACTVS_TPSA>
87

>  <PUBCHEM_MONOISOTOPIC_WEIGHT>
270.052823

>  <PUBCHEM_TOTAL_CHARGE>
0

>  <PUBCHEM_HEAVY_ATOM_COUNT>
20

>  <PUBCHEM_ATOM_DEF_STEREO_COUNT>
0

>  <PUBCHEM_ATOM_UDEF_STEREO_COUNT>
0

>  <PUBCHEM_BOND_DEF_STEREO_COUNT>
0

>  <PUBCHEM_BOND_UDEF_STEREO_COUNT>
0

>  <PUBCHEM_ISOTOPIC_ATOM_COUNT>
0

>  <PUBCHEM_COMPONENT_COUNT>
1

>  <PUBCHEM_CACTVS_TAUTO_COUNT>
-1

>  <PUBCHEM_COORDINATE_TYPE>
1
5
255

>  <PUBCHEM_BONDANNOTATIONS>
1  7  8
1  8  8
10  11  8
12  16  8
12  17  8
13  15  8
14  15  8
16  18  8
17  19  8
18  20  8
19  20  8
6  10  8
6  7  8
6  9  8
7  13  8
8  11  8
9  14  8

>  <LF dG>
-6.141

>  <LF VSscore>
-7.544

>  <LF Rank Score>
-8.877

>  <LF LE>
-0.307

>  <Preferred Pose_cresset>
true

>  <Favorite_cresset>
false

>  <Protein_cresset>
6M2N_Monomer_P

>  <MW_cresset>
270.2

>  <#Atoms_cresset>
20

>  <SlogP_cresset>
2.3

>  <TPSA_cresset>
87

>  <Flexibility_cresset>
1.7

>  <#RB_cresset>
4

>  <Rof5_cresset>
0

>  <Filename_cresset>
Baicalein.sdf

>  <Confs_cresset>
0

>  <Poses_cresset>
10

>  <_cresset_fieldpoints>
    -5     -45.094593      -4.057802      20.541824     -2.4443
    -5     -51.551819      -4.587954      13.483936     -7.4023
    -5     -47.803001       0.980913      13.371436    -11.5515
    -5     -45.465340       1.865216      14.198507     -9.8637
    -5     -42.825768       1.219271      18.987892     -2.4100
    -6     -49.971107      -5.745430      17.804943      7.3445
    -6     -40.973667      -3.488519      17.555058      3.3841
    -6     -44.031200      -3.238065      15.728594      3.3020
    -6     -48.360355      -2.346693      11.053473      5.7555
    -6     -46.989395       0.413550      21.963903      3.1215
    -6     -40.317802      -2.404970      21.559109      3.2889
    -6     -48.187649      -0.629674      18.961266      2.6066
    -6     -43.365982      -0.416516      23.734781      3.2315
    -7     -46.495956      -4.228079      19.117302     -2.4582
    -7     -44.319210      -3.215163      15.347346     -2.6056
    -7     -50.515255      -0.345068      12.130684     -1.3555
    -7     -50.278130      -0.674891      16.817726     -1.8105
    -7     -48.486984       1.369880      13.746146     -1.6444
    -7     -48.086178       0.152460      18.068367     -2.6066
    -7     -51.773491      -4.985213      13.268891     -1.2873
    -7     -47.989281      -3.105736      11.022718     -1.4057
    -7     -51.685074      -3.726191      17.468433     -1.1899
    -7     -45.257484      -1.493607      12.653118     -1.7739
    -7     -43.210258       1.367721      18.143539     -2.0492
    -7     -48.928406      -7.031453      15.898090     -1.2163
    -7     -45.969345      -4.452240      13.822201     -1.8254
    -7     -40.697693      -3.403660      17.271812     -0.9878
    -7     -40.061073      -2.412156      21.701870     -0.9674
    -7     -43.333954      -0.280242      23.991497     -0.9670
    -8     -48.353588      -2.752308      15.235397      6.6000
    -8     -46.555122      -1.398775      16.039766      5.0076
    -8     -43.991249      -1.463594      19.673580      7.1507

$$$$
Untitled
  xed2sdf_05210316543D
 
 30 32  0  0  0  0  0  0  0  0999 V2000
  -51.5085    3.1389   12.8216 O   0  0  0  0  0  0  0  0  0  0  0  0
  -47.4365    0.6179   12.1006 O   0  0  0  0  0  0  0  0  0  0  0  0
  -48.3395   -1.2551   13.8286 O   0  0  0  0  0  0  0  0  0  0  0  0
  -50.7895   -0.9621   15.0336 O   0  0  0  0  0  0  0  0  0  0  0  0
  -47.9885    2.9649   10.8466 O   0  0  0  0  0  0  0  0  0  0  0  0
  -49.4425    1.9279   12.3996 C   0  0  0  0  0  0  0  0  0  0  0  0
  -50.6845    2.0729   13.0266 C   0  0  0  0  0  0  0  0  0  0  0  0
  -51.0915    4.1369   11.9776 C   0  0  0  0  0  0  0  0  0  0  0  0
  -48.6555    0.7979   12.6796 C   0  0  0  0  0  0  0  0  0  0  0  0
  -49.0425    2.9799   11.4816 C   0  0  0  0  0  0  0  0  0  0  0  0
  -49.9055    4.0899   11.3046 C   0  0  0  0  0  0  0  0  0  0  0  0
  -52.0075    5.2969   11.8226 C   0  0  0  0  0  0  0  0  0  0  0  0
  -51.1175    1.0949   13.9026 C   0  0  0  0  0  0  0  0  0  0  0  0
  -49.1085   -0.1571   13.5566 C   0  0  0  0  0  0  0  0  0  0  0  0
  -50.3455   -0.0121   14.1706 C   0  0  0  0  0  0  0  0  0  0  0  0
  -52.9885    5.3609   10.8416 C   0  0  0  0  0  0  0  0  0  0  0  0
  -51.8785    6.3709   12.6906 C   0  0  0  0  0  0  0  0  0  0  0  0
  -53.8075    6.4589   10.7366 C   0  0  0  0  0  0  0  0  0  0  0  0
  -52.6975    7.4689   12.5856 C   0  0  0  0  0  0  0  0  0  0  0  0
  -53.6645    7.5149   11.6076 C   0  0  0  0  0  0  0  0  0  0  0  0
  -47.2265   -0.3501   11.9506 H   0  0  0  0  0  0  0  0  0  0  0  0
  -47.6255   -1.3851   13.1316 H   0  0  0  0  0  0  0  0  0  0  0  0
  -50.7305   -1.8821   14.6296 H   0  0  0  0  0  0  0  0  0  0  0  0
  -49.6475    4.8339   10.6886 H   0  0  0  0  0  0  0  0  0  0  0  0
  -52.0055    1.1939   14.3496 H   0  0  0  0  0  0  0  0  0  0  0  0
  -53.0995    4.5989   10.2036 H   0  0  0  0  0  0  0  0  0  0  0  0
  -51.1785    6.3459   13.4036 H   0  0  0  0  0  0  0  0  0  0  0  0
  -54.5095    6.4909   10.0256 H   0  0  0  0  0  0  0  0  0  0  0  0
  -52.5915    8.2339   13.2196 H   0  0  0  0  0  0  0  0  0  0  0  0
  -54.2615    8.3139   11.5296 H   0  0  0  0  0  0  0  0  0  0  0  0
  1  7  1  0
  1  8  1  0
  2  9  1  0
  3 14  1  0
  4 15  1  0
  5 10  2  0
  6  7  2  0
  6  9  1  0
  6 10  1  0
  7 13  1  0
  8 11  2  0
  8 12  1  0
  9 14  2  0
 10 11  1  0
 12 16  2  0
 12 17  1  0
 13 15  2  0
 14 15  1  0
 16 18  1  0
 17 19  2  0
 18 20  2  0
 19 20  1  0
  2 21  1  0
  3 22  1  0
  4 23  1  0
 11 24  1  0
 13 25  1  0
 16 26  1  0
 17 27  1  0
 18 28  1  0
 19 29  1  0
 20 30  1  0
M  END
>  <BioMolTech Lead Finder dG>
-4.756

>  <BioMolTech Lead Finder VSscore>
-6.373

>  <BioMolTech Lead Finder Rank score>
-9.04

>  <BioMolTech Lead Finder LE>
-0.238

>  <BioMolTech Lead Finder Structure Name>
/var/folders/xd/y7jw_xv579q2qqq7kks92xd80000gn/T/LeadFinder_58626_1/Ligand_1.sdf

>  <BioMolTech Lead Finder SDF id>
0

>  <BioMolTech Lead Finder Pose rank>
0

>  <BioMolTech Lead Finder version>
2001 1, 19 January 2019

>  <PUBCHEM_COMPOUND_CID>
5281605

>  <PUBCHEM_COMPOUND_CANONICALIZED>
1

>  <PUBCHEM_CACTVS_COMPLEXITY>
413

>  <PUBCHEM_CACTVS_HBOND_ACCEPTOR>
5

>  <PUBCHEM_CACTVS_HBOND_DONOR>
3

>  <PUBCHEM_CACTVS_ROTATABLE_BOND>
1

>  <PUBCHEM_CACTVS_SUBSKEYS>
AAADccBwOAAAAAAAAAAAAAAAAAAAAAAAAAAwYIAAAAAAAACBQAAAGgAACAAADASAmAAwBoAABgCIAqBSAAACCAAkIAAIiAEGiMgNJzaGNRqCeWGl4BUJuQfK7LzOIQABCAAIQABCAAIQABCAAAAAAAAAAA==

>  <PUBCHEM_IUPAC_OPENEYE_NAME>
5,6,7-trihydroxy-2-phenyl-chromen-4-one

>  <PUBCHEM_IUPAC_CAS_NAME>
5,6,7-trihydroxy-2-phenyl-1-benzopyran-4-one

>  <PUBCHEM_IUPAC_NAME_MARKUP>
5,6,7-trihydroxy-2-phenylchromen-4-one

>  <PUBCHEM_IUPAC_NAME>
5,6,7-trihydroxy-2-phenylchromen-4-one

>  <PUBCHEM_IUPAC_SYSTEMATIC_NAME>
5,6,7-tris(oxidanyl)-2-phenyl-chromen-4-one

>  <PUBCHEM_IUPAC_TRADITIONAL_NAME>
5,6,7-trihydroxy-2-phenyl-chromone

>  <PUBCHEM_IUPAC_INCHI>
InChI=1S/C15H10O5/c16-9-6-11(8-4-2-1-3-5-8)20-12-7-10(17)14(18)15(19)13(9)12/h1-7,17-19H

>  <PUBCHEM_IUPAC_INCHIKEY>
FXNFHKRTJBSTCS-UHFFFAOYSA-N

>  <PUBCHEM_XLOGP3>
1.7

>  <PUBCHEM_EXACT_MASS>
270.052823

>  <PUBCHEM_MOLECULAR_FORMULA>
C15H10O5

>  <PUBCHEM_MOLECULAR_WEIGHT>
270.24

>  <PUBCHEM_OPENEYE_CAN_SMILES>
C1=CC=C(C=C1)C2=CC(=O)C3=C(O2)C=C(C(=C3O)O)O

>  <PUBCHEM_OPENEYE_ISO_SMILES>
C1=CC=C(C=C1)C2=CC(=O)C3=C(O2)C=C(C(=C3O)O)O

>  <PUBCHEM_CACTVS_TPSA>
87

>  <PUBCHEM_MONOISOTOPIC_WEIGHT>
270.052823

>  <PUBCHEM_TOTAL_CHARGE>
0

>  <PUBCHEM_HEAVY_ATOM_COUNT>
20

>  <PUBCHEM_ATOM_DEF_STEREO_COUNT>
0

>  <PUBCHEM_ATOM_UDEF_STEREO_COUNT>
0

>  <PUBCHEM_BOND_DEF_STEREO_COUNT>
0

>  <PUBCHEM_BOND_UDEF_STEREO_COUNT>
0

>  <PUBCHEM_ISOTOPIC_ATOM_COUNT>
0

>  <PUBCHEM_COMPONENT_COUNT>
1

>  <PUBCHEM_CACTVS_TAUTO_COUNT>
-1

>  <PUBCHEM_COORDINATE_TYPE>
1
5
255

>  <PUBCHEM_BONDANNOTATIONS>
1  7  8
1  8  8
10  11  8
12  16  8
12  17  8
13  15  8
14  15  8
16  18  8
17  19  8
18  20  8
19  20  8
6  10  8
6  7  8
6  9  8
7  13  8
8  11  8
9  14  8

>  <LF dG>
-4.756

>  <LF VSscore>
-6.373

>  <LF Rank Score>
-9.04

>  <LF LE>
-0.238

>  <Preferred Pose_cresset>
true

>  <Favorite_cresset>
false

>  <Protein_cresset>
6M2N_Monomer_P

>  <MW_cresset>
270.2

>  <#Atoms_cresset>
20

>  <SlogP_cresset>
2.3

>  <TPSA_cresset>
87

>  <Flexibility_cresset>
1.7

>  <#RB_cresset>
4

>  <Rof5_cresset>
0

>  <Filename_cresset>
Baicalein.sdf

>  <Confs_cresset>
0

>  <Poses_cresset>
10

>  <_cresset_fieldpoints>
    -5     -53.569618       3.775567      13.818574     -3.2663
    -5     -46.376518       2.022899      11.011936    -12.8877
    -5     -54.601501       4.986880      13.627121     -3.3613
    -5     -47.014610       4.069980       9.688662    -10.9936
    -5     -49.825821      -0.536115      16.895798     -4.9341
    -5     -50.964287       7.839395       9.866693     -2.9156
    -6     -52.499199       2.467561       9.928551      2.4437
    -6     -51.073750       8.444142      14.981228      2.5143
    -6     -50.745979      -3.305264      13.570883      5.4947
    -6     -54.877068       4.683304       8.446745      2.9271
    -6     -46.939362      -2.064173      11.706813     10.7369
    -6     -56.034027       8.411759       9.763820      2.9184
    -6     -54.121696      10.246225      13.008675      2.8159
    -7     -51.894943       2.184802       9.895258     -2.5806
    -7     -49.205376       4.836537      14.222937     -2.6299
    -7     -45.691139      -0.287866      13.752968     -1.4844
    -7     -46.021103       2.750141      12.448736     -1.6405
    -7     -49.380417      -3.428914      13.473958     -1.3407
    -7     -48.388309      -2.164074      11.021297     -1.3896
    -7     -48.885502      -2.581835      15.869556     -1.3999
    -7     -53.165047      -1.625005      14.783369     -1.2173
    -7     -47.557606       0.773314       9.607811     -1.7192
    -7     -48.513306       2.872271      15.531985     -1.8202
    -7     -51.306839      -0.365867      10.681822     -1.8131
    -7     -53.652710       3.493305      13.965506     -2.4526
    -7     -54.745956       4.561001       8.069378     -0.9866
    -7     -56.260323       8.549037       9.667727     -0.9674
    -7     -54.113060      10.498804      13.170930     -0.9670
    -7     -50.606339       8.290714      15.155720     -0.9932
    -7     -50.317635       7.274489       9.753990     -2.0582
    -8     -52.836479       6.411383      11.713664      7.1509
    -8     -49.910622       0.984693      13.276213      6.5997
    -8     -49.971615       3.022141      12.027378      5.0057

$$$$
W_Baicalin_D
  xed2sdf_05210316543D
 
 49 52  0  0  1  0  0  0  0  0999 V2000
  -47.5444   -3.0442   16.6911 O   0  0  0  0  0  0  0  0  0  0  0  0
  -49.6784   -4.1072   16.1121 O   0  0  0  0  0  0  0  0  0  0  0  0
  -47.9754   -0.4392   13.4141 O   0  0  0  0  0  0  0  0  0  0  0  0
  -49.8194   -2.6012   13.7931 O   0  0  0  0  0  0  0  0  0  0  0  0
  -45.4124   -0.7242   14.7141 O   0  0  0  0  0  0  0  0  0  0  0  0
  -44.1904   -1.8182   16.9521 O   0  5  0  0  0  0  0  0  0  0  0  0
  -45.9034   -2.0342   18.4471 O   0  0  0  0  0  0  0  0  0  0  0  0
  -46.9844   -7.4812   18.0441 O   0  0  0  0  0  0  0  0  0  0  0  0
  -51.9374   -5.6032   16.4891 O   0  0  0  0  0  0  0  0  0  0  0  0
  -51.7364   -8.0702   17.6301 O   0  0  0  0  0  0  0  0  0  0  0  0
  -50.2074   -9.8602   18.6331 O   0  0  0  0  0  0  0  0  0  0  0  0
  -47.6284   -1.5992   14.1841 C   0  0  0  0  0  0  0  0  0  0  0  0
  -48.8874   -2.2192   14.8171 C   0  0  0  0  0  0  0  0  0  0  0  0
  -46.6274   -1.2262   15.2921 C   0  0  0  0  0  0  0  0  0  0  0  0
  -48.4764   -3.4432   15.6601 C   0  0  0  0  0  0  0  0  0  0  0  0
  -46.3324   -2.4722   16.1501 C   0  0  0  0  0  0  0  0  0  0  0  0
  -45.4034   -2.0782   17.2691 C   0  0  0  0  0  0  0  0  0  0  0  0
  -49.5624   -5.3172   16.6621 C   0  0  0  0  0  0  0  0  0  0  0  0
  -48.3354   -5.8132   17.0581 C   0  0  0  0  0  0  0  0  0  0  0  0
  -50.7104   -6.0792   16.8651 C   0  0  0  0  0  0  0  0  0  0  0  0
  -48.2204   -7.0562   17.6571 C   0  0  0  0  0  0  0  0  0  0  0  0
  -49.3754   -7.8182   17.8421 C   0  0  0  0  0  0  0  0  0  0  0  0
  -50.6184   -7.3212   17.4411 C   0  0  0  0  0  0  0  0  0  0  0  0
  -49.2414   -9.1172   18.4631 C   0  0  0  0  0  0  0  0  0  0  0  0
  -46.8824   -8.6972   18.6801 C   0  0  0  0  0  0  0  0  0  0  0  0
  -47.9514   -9.5202   18.8901 C   0  0  0  0  0  0  0  0  0  0  0  0
  -45.5264   -9.0922   19.1451 C   0  0  0  0  0  0  0  0  0  0  0  0
  -44.7264   -9.8522   18.3061 C   0  0  0  0  0  0  0  0  0  0  0  0
  -45.0184   -8.7292   20.3861 C   0  0  0  0  0  0  0  0  0  0  0  0
  -43.4644  -10.2362   18.6891 C   0  0  0  0  0  0  0  0  0  0  0  0
  -43.7564   -9.1122   20.7691 C   0  0  0  0  0  0  0  0  0  0  0  0
  -42.9754   -9.8662   19.9221 C   0  0  0  0  0  0  0  0  0  0  0  0
  -47.2074   -2.2672   13.5721 H   0  0  0  0  0  0  0  0  0  0  0  0
  -49.3334   -1.5462   15.4071 H   0  0  0  0  0  0  0  0  0  0  0  0
  -47.0214   -0.5102   15.8681 H   0  0  0  0  0  0  0  0  0  0  0  0
  -47.9724   -4.1232   15.1281 H   0  0  0  0  0  0  0  0  0  0  0  0
  -45.9064   -3.1682   15.5711 H   0  0  0  0  0  0  0  0  0  0  0  0
  -48.1644   -0.6792   12.4561 H   0  0  0  0  0  0  0  0  0  0  0  0
  -49.5514   -2.2322   12.8971 H   0  0  0  0  0  0  0  0  0  0  0  0
  -45.2594   -1.1042   13.7961 H   0  0  0  0  0  0  0  0  0  0  0  0
  -52.4194   -6.2442   15.8841 H   0  0  0  0  0  0  0  0  0  0  0  0
  -52.0944   -8.4232   16.7591 H   0  0  0  0  0  0  0  0  0  0  0  0
  -47.5134   -5.2632   16.9091 H   0  0  0  0  0  0  0  0  0  0  0  0
  -47.8244  -10.4042   19.3411 H   0  0  0  0  0  0  0  0  0  0  0  0
  -45.0734  -10.1262   17.4091 H   0  0  0  0  0  0  0  0  0  0  0  0
  -45.5784   -8.1812   21.0081 H   0  0  0  0  0  0  0  0  0  0  0  0
  -42.8994  -10.7842   18.0721 H   0  0  0  0  0  0  0  0  0  0  0  0
  -43.4034   -8.8432   21.6651 H   0  0  0  0  0  0  0  0  0  0  0  0
  -42.0564  -10.1452   20.2011 H   0  0  0  0  0  0  0  0  0  0  0  0
  1 15  1  0
  1 16  1  0
  2 18  1  0
  6 17  1  0
  7 17  2  0
  8 21  1  0
  8 25  1  0
  9 20  1  0
 10 23  1  0
 11 24  2  0
 12  3  1  0
 12 13  1  0
 12 14  1  0
 13  4  1  0
 13 15  1  0
 14  5  1  0
 14 16  1  0
 15  2  1  0
 16 17  1  0
 18 19  2  0
 18 20  1  0
 19 21  1  0
 20 23  2  0
 21 22  2  0
 22 23  1  0
 22 24  1  0
 24 26  1  0
 25 26  2  0
 25 27  1  0
 27 28  2  0
 27 29  1  0
 28 30  1  0
 29 31  2  0
 30 32  2  0
 31 32  1  0
  3 38  1  0
  4 39  1  0
  5 40  1  0
  9 41  1  0
 10 42  1  0
 12 33  1  0
 13 34  1  0
 14 35  1  0
 15 36  1  0
 16 37  1  0
 19 43  1  0
 26 44  1  0
 28 45  1  0
 29 46  1  0
 30 47  1  0
 31 48  1  0
 32 49  1  0
M  CHG  1   6  -1
M  END
>  <BioMolTech Lead Finder dG>
-5.952

>  <BioMolTech Lead Finder VSscore>
-9.735

>  <BioMolTech Lead Finder Rank score>
-10.147

>  <BioMolTech Lead Finder LE>
-0.186

>  <BioMolTech Lead Finder Structure Name>
/var/folders/xd/y7jw_xv579q2qqq7kks92xd80000gn/T/LeadFinder_61399_1/Ligand_1.sdf

>  <BioMolTech Lead Finder SDF id>
0

>  <BioMolTech Lead Finder Pose rank>
0

>  <BioMolTech Lead Finder version>
2001 1, 19 January 2019

>  <PUBCHEM_COMPOUND_CID>
64982

>  <PUBCHEM_COMPOUND_CANONICALIZED>
1

>  <PUBCHEM_CACTVS_COMPLEXITY>
748

>  <PUBCHEM_CACTVS_HBOND_ACCEPTOR>
11

>  <PUBCHEM_CACTVS_HBOND_DONOR>
6

>  <PUBCHEM_CACTVS_ROTATABLE_BOND>
4

>  <PUBCHEM_CACTVS_SUBSKEYS>
AAADceB4PAAAAAAAAAAAAAAAAAAAAAAAAAA0YIEAAAAAAACBQAAAGgAACAAADBSwmAMwDoAABgCIAqDSCAICCAAkIAAIiAFGiMgdNzaGNR6ieWOl4BUPuQfK7LzOIQABCAAIQABCAAIQABCAAAAAAAAAAA==

>  <PUBCHEM_IUPAC_OPENEYE_NAME>
(2S,3S,4S,5R,6S)-6-(5,6-dihydroxy-4-oxo-2-phenyl-chromen-7-yl)oxy-3,4,5-trihydroxy-tetrahydropyran-2-carboxylic acid

>  <PUBCHEM_IUPAC_CAS_NAME>
(2S,3S,4S,5R,6S)-6-[(5,6-dihydroxy-4-oxo-2-phenyl-1-benzopyran-7-yl)oxy]-3,4,5-trihydroxy-2-oxanecarboxylic acid

>  <PUBCHEM_IUPAC_NAME_MARKUP>
(2<I>S</I>,3<I>S</I>,4<I>S</I>,5<I>R</I>,6<I>S</I>)-6-(5,6-dihydroxy-4-oxo-2-phenylchromen-7-yl)oxy-3,4,5-trihydroxyoxane-2-carboxylic acid

>  <PUBCHEM_IUPAC_NAME>
(2S,3S,4S,5R,6S)-6-(5,6-dihydroxy-4-oxo-2-phenylchromen-7-yl)oxy-3,4,5-trihydroxyoxane-2-carboxylic acid

>  <PUBCHEM_IUPAC_SYSTEMATIC_NAME>
(2S,3S,4S,5R,6S)-6-[5,6-bis(oxidanyl)-4-oxidanylidene-2-phenyl-chromen-7-yl]oxy-3,4,5-tris(oxidanyl)oxane-2-carboxylic acid

>  <PUBCHEM_IUPAC_TRADITIONAL_NAME>
(2S,3S,4S,5R,6S)-6-(5,6-dihydroxy-4-keto-2-phenyl-chromen-7-yl)oxy-3,4,5-trihydroxy-tetrahydropyran-2-carboxylic acid

>  <PUBCHEM_IUPAC_INCHI>
InChI=1S/C21H18O11/c22-9-6-10(8-4-2-1-3-5-8)30-11-7-12(14(23)15(24)13(9)11)31-21-18(27)16(25)17(26)19(32-21)20(28)29/h1-7,16-19,21,23-27H,(H,28,29)/t16-,17-,18+,19-,21+/m0/s1

>  <PUBCHEM_IUPAC_INCHIKEY>
IKIIZLYTISPENI-ZFORQUDYSA-N

>  <PUBCHEM_XLOGP3_AA>
1.1

>  <PUBCHEM_EXACT_MASS>
446.084911

>  <PUBCHEM_MOLECULAR_FORMULA>
C21H18O11

>  <PUBCHEM_MOLECULAR_WEIGHT>
446.4

>  <PUBCHEM_OPENEYE_CAN_SMILES>
C1=CC=C(C=C1)C2=CC(=O)C3=C(C(=C(C=C3O2)OC4C(C(C(C(O4)C(=O)O)O)O)O)O)O

>  <PUBCHEM_OPENEYE_ISO_SMILES>
C1=CC=C(C=C1)C2=CC(=O)C3=C(C(=C(C=C3O2)O[C@H]4[C@@H]([C@H]([C@@H]([C@H](O4)C(=O)O)O)O)O)O)O

>  <PUBCHEM_CACTVS_TPSA>
183

>  <PUBCHEM_MONOISOTOPIC_WEIGHT>
446.084911

>  <PUBCHEM_TOTAL_CHARGE>
0

>  <PUBCHEM_HEAVY_ATOM_COUNT>
32

>  <PUBCHEM_ATOM_DEF_STEREO_COUNT>
5

>  <PUBCHEM_ATOM_UDEF_STEREO_COUNT>
0

>  <PUBCHEM_BOND_DEF_STEREO_COUNT>
0

>  <PUBCHEM_BOND_UDEF_STEREO_COUNT>
0

>  <PUBCHEM_ISOTOPIC_ATOM_COUNT>
0

>  <PUBCHEM_COMPONENT_COUNT>
1

>  <PUBCHEM_CACTVS_TAUTO_COUNT>
-1

>  <PUBCHEM_COORDINATE_TYPE>
1
5
255

>  <PUBCHEM_BONDANNOTATIONS>
16  17  5
18  19  8
18  20  8
19  21  8
15  2  5
20  23  8
21  22  8
22  23  8
22  24  8
24  26  8
25  26  8
27  28  8
27  29  8
28  30  8
29  31  8
12  3  5
30  32  8
31  32  8
13  4  6
14  5  6
8  21  8
8  25  8

>  <LF dG>
-5.952

>  <LF VSscore>
-9.735

>  <LF Rank Score>
-10.147

>  <LF LE>
-0.186

>  <Preferred Pose_cresset>
true

>  <Favorite_cresset>
false

>  <Protein_cresset>
6M2N_Monomer_P

>  <MW_cresset>
445.4

>  <#Atoms_cresset>
32

>  <SlogP_cresset>
1.1

>  <TPSA_cresset>
186

>  <Flexibility_cresset>
7.6

>  <#RB_cresset>
9

>  <Rof5_cresset>
1

>  <Filename_cresset>
Baicalin.sdf

>  <Confs_cresset>
0

>  <Poses_cresset>
10

>  <_cresset_fieldpoints>
    -5     -44.534836      -1.485042      19.524248    -11.4842
    -5     -47.780006      -2.564586      18.619068    -12.8847
    -5     -51.422722      -3.389120      14.703218    -11.6117
    -5     -44.069736       0.071016      15.717504    -11.1616
    -5     -47.511215       1.311447      14.058062     -7.9879
    -5     -52.011871      -9.401241      19.132206    -14.3457
    -5     -43.419769      -1.321487      18.544054    -11.2880
    -5     -50.663933     -11.378967      19.633429    -11.8637
    -5     -45.235535     -11.951990      20.909904     -3.6255
    -5     -43.380116      -6.709425      18.667965     -4.5256
    -6     -48.382698      -2.128830      11.513581     14.2202
    -6     -45.567932      -2.053975      12.223753     10.3429
    -6     -46.163086      -4.119914      13.430969      9.2170
    -6     -46.536133      -9.451050      15.803322      2.6805
    -6     -52.721272      -7.865387      15.146791      7.8302
    -6     -43.776066     -11.317932      15.756784      2.7157
    -6     -40.925049      -9.823305      22.208652      1.8488
    -6     -40.699680     -11.590203      18.475470      2.3302
    -7     -48.552673      -1.699767      18.341526     -2.6148
    -7     -48.128319      -3.034776      18.936829     -2.7604
    -7     -51.610367      -4.212363      14.179735     -2.3198
    -7     -46.017437       0.836988      12.760118     -1.5969
    -7     -50.377724      -0.047463      12.994009     -1.6232
    -7     -49.054955       1.177862      15.021870     -1.5884
    -7     -45.873047      -5.667519      14.941544     -2.2250
    -7     -43.444313      -2.224290      14.666971     -1.8733
    -7     -44.080627       0.524041      16.292576     -1.5671
    -7     -44.826744      -3.314420      13.242327     -1.7603
    -7     -47.207401      -9.724522      15.896393     -2.6065
    -7     -53.962944      -7.010441      17.421797     -1.5399
    -7     -48.947357      -7.794929      14.323135     -1.9384
    -7     -52.574333     -10.242241      18.095261     -1.5179
    -7     -51.832893      -8.671263      20.187447     -1.6539
    -7     -50.929527     -10.409519      16.218899     -1.7849
    -7     -49.693741      -5.327334      20.227615     -1.8957
    -7     -50.206993      -4.985534      13.399427     -2.3284
    -7     -43.897141     -11.814686      15.690020     -0.9921
    -7     -44.966911      -7.580388      23.565414     -0.9872
    -7     -48.092209      -7.254651      21.003208     -2.6249
    -7     -45.083519      -5.911716      18.021156     -2.8082
    -7     -40.387100     -11.675730      18.668907     -0.9671
    -7     -40.918419      -9.494045      22.596651     -0.9672
    -7     -46.079643     -12.013390      20.624796     -2.0537
    -8     -47.521652      -2.208112      15.078942      5.1803
    -8     -48.394424      -8.458519      18.316401      5.0245
    -8     -49.436943      -6.587038      17.259537      6.6055
    -8     -44.246880      -9.483816      19.539051      7.1501

$$$$
Untitled
  xed2sdf_05210316543D
 
 49 52  0  0  1  0  0  0  0  0999 V2000
  -52.2673   -2.4829   15.2254 O   0  0  0  0  0  0  0  0  0  0  0  0
  -50.1413   -1.2709   15.4065 O   0  0  0  0  0  0  0  0  0  0  0  0
  -50.2523   -6.0959   15.9944 O   0  0  0  0  0  0  0  0  0  0  0  0
  -48.7733   -3.6689   15.6164 O   0  0  0  0  0  0  0  0  0  0  0  0
  -52.9243   -6.1289   14.9004 O   0  0  0  0  0  0  0  0  0  0  0  0
  -54.7753   -3.3949   16.1644 O   0  5  0  0  0  0  0  0  0  0  0  0
  -55.1303   -3.8219   13.9494 O   0  0  0  0  0  0  0  0  0  0  0  0
  -51.6583    2.6701   13.2774 O   0  0  0  0  0  0  0  0  0  0  0  0
  -47.9013   -1.3339   13.8375 O   0  0  0  0  0  0  0  0  0  0  0  0
  -47.5293    0.5981   11.9515 O   0  0  0  0  0  0  0  0  0  0  0  0
  -48.4343    2.7101   10.8274 O   0  0  0  0  0  0  0  0  0  0  0  0
  -50.8053   -4.9799   15.2824 C   0  0  0  0  0  0  0  0  0  0  0  0
  -50.1983   -3.6609   15.7955 C   0  0  0  0  0  0  0  0  0  0  0  0
  -52.3343   -4.9419   15.4515 C   0  0  0  0  0  0  0  0  0  0  0  0
  -50.8343   -2.4829   15.0315 C   0  0  0  0  0  0  0  0  0  0  0  0
  -52.8913   -3.6919   14.7414 C   0  0  0  0  0  0  0  0  0  0  0  0
  -54.3803   -3.6319   14.9704 C   0  0  0  0  0  0  0  0  0  0  0  0
  -49.9783   -0.3249   14.4804 C   0  0  0  0  0  0  0  0  0  0  0  0
  -50.9043    0.6881   14.3165 C   0  0  0  0  0  0  0  0  0  0  0  0
  -48.8353   -0.3459   13.6854 C   0  0  0  0  0  0  0  0  0  0  0  0
  -50.7193    1.6871   13.3764 C   0  0  0  0  0  0  0  0  0  0  0  0
  -49.5783    1.6471   12.5744 C   0  0  0  0  0  0  0  0  0  0  0  0
  -48.6393    0.6241   12.7354 C   0  0  0  0  0  0  0  0  0  0  0  0
  -49.3993    2.6941   11.5925 C   0  0  0  0  0  0  0  0  0  0  0  0
  -51.4473    3.6851   12.3735 C   0  0  0  0  0  0  0  0  0  0  0  0
  -50.3703    3.7231   11.5335 C   0  0  0  0  0  0  0  0  0  0  0  0
  -52.4613    4.7721   12.3444 C   0  0  0  0  0  0  0  0  0  0  0  0
  -53.5423    4.6551   11.4834 C   0  0  0  0  0  0  0  0  0  0  0  0
  -52.3803    5.9031   13.1474 C   0  0  0  0  0  0  0  0  0  0  0  0
  -54.5093    5.6301   11.4264 C   0  0  0  0  0  0  0  0  0  0  0  0
  -53.3473    6.8771   13.0894 C   0  0  0  0  0  0  0  0  0  0  0  0
  -54.4143    6.7441   12.2295 C   0  0  0  0  0  0  0  0  0  0  0  0
  -50.5843   -5.0859   14.3134 H   0  0  0  0  0  0  0  0  0  0  0  0
  -50.3873   -3.5619   16.7724 H   0  0  0  0  0  0  0  0  0  0  0  0
  -52.5593   -4.9009   16.4244 H   0  0  0  0  0  0  0  0  0  0  0  0
  -50.7243   -2.5649   14.0405 H   0  0  0  0  0  0  0  0  0  0  0  0
  -52.6913   -3.7609   13.7645 H   0  0  0  0  0  0  0  0  0  0  0  0
  -50.6493   -6.9649   15.6804 H   0  0  0  0  0  0  0  0  0  0  0  0
  -48.5013   -4.2889   14.8724 H   0  0  0  0  0  0  0  0  0  0  0  0
  -52.2953   -6.9119   14.9594 H   0  0  0  0  0  0  0  0  0  0  0  0
  -47.2653   -1.3719   13.0595 H   0  0  0  0  0  0  0  0  0  0  0  0
  -47.2263   -0.3449   11.7754 H   0  0  0  0  0  0  0  0  0  0  0  0
  -51.7243    0.7001   14.8895 H   0  0  0  0  0  0  0  0  0  0  0  0
  -50.2693    4.4741   10.8804 H   0  0  0  0  0  0  0  0  0  0  0  0
  -53.6193    3.8501   10.8954 H   0  0  0  0  0  0  0  0  0  0  0  0
  -51.6093    6.0091   13.7745 H   0  0  0  0  0  0  0  0  0  0  0  0
  -55.2823    5.5301   10.8004 H   0  0  0  0  0  0  0  0  0  0  0  0
  -53.2763    7.6861   13.6734 H   0  0  0  0  0  0  0  0  0  0  0  0
  -55.1173    7.4531   12.1884 H   0  0  0  0  0  0  0  0  0  0  0  0
  1 15  1  0
  1 16  1  0
  2 18  1  0
  6 17  1  0
  7 17  2  0
  8 21  1  0
  8 25  1  0
  9 20  1  0
 10 23  1  0
 11 24  2  0
 12  3  1  0
 12 13  1  0
 12 14  1  0
 13  4  1  0
 13 15  1  0
 14  5  1  0
 14 16  1  0
 15  2  1  0
 16 17  1  0
 18 19  2  0
 18 20  1  0
 19 21  1  0
 20 23  2  0
 21 22  2  0
 22 23  1  0
 22 24  1  0
 24 26  1  0
 25 26  2  0
 25 27  1  0
 27 28  2  0
 27 29  1  0
 28 30  1  0
 29 31  2  0
 30 32  2  0
 31 32  1  0
  3 38  1  0
  4 39  1  0
  5 40  1  0
  9 41  1  0
 10 42  1  0
 12 33  1  0
 13 34  1  0
 14 35  1  0
 15 36  1  0
 16 37  1  0
 19 43  1  0
 26 44  1  0
 28 45  1  0
 29 46  1  0
 30 47  1  0
 31 48  1  0
 32 49  1  0
M  CHG  1   6  -1
M  END
>  <BioMolTech Lead Finder dG>
-4.749

>  <BioMolTech Lead Finder VSscore>
-9.281

>  <BioMolTech Lead Finder Rank score>
-10.295

>  <BioMolTech Lead Finder LE>
-0.148

>  <BioMolTech Lead Finder Structure Name>
/var/folders/xd/y7jw_xv579q2qqq7kks92xd80000gn/T/LeadFinder_58627_1/Ligand_1.sdf

>  <BioMolTech Lead Finder SDF id>
0

>  <BioMolTech Lead Finder Pose rank>
0

>  <BioMolTech Lead Finder version>
2001 1, 19 January 2019

>  <PUBCHEM_COMPOUND_CID>
64982

>  <PUBCHEM_COMPOUND_CANONICALIZED>
1

>  <PUBCHEM_CACTVS_COMPLEXITY>
748

>  <PUBCHEM_CACTVS_HBOND_ACCEPTOR>
11

>  <PUBCHEM_CACTVS_HBOND_DONOR>
6

>  <PUBCHEM_CACTVS_ROTATABLE_BOND>
4

>  <PUBCHEM_CACTVS_SUBSKEYS>
AAADceB4PAAAAAAAAAAAAAAAAAAAAAAAAAA0YIEAAAAAAACBQAAAGgAACAAADBSwmAMwDoAABgCIAqDSCAICCAAkIAAIiAFGiMgdNzaGNR6ieWOl4BUPuQfK7LzOIQABCAAIQABCAAIQABCAAAAAAAAAAA==

>  <PUBCHEM_IUPAC_OPENEYE_NAME>
(2S,3S,4S,5R,6S)-6-(5,6-dihydroxy-4-oxo-2-phenyl-chromen-7-yl)oxy-3,4,5-trihydroxy-tetrahydropyran-2-carboxylic acid

>  <PUBCHEM_IUPAC_CAS_NAME>
(2S,3S,4S,5R,6S)-6-[(5,6-dihydroxy-4-oxo-2-phenyl-1-benzopyran-7-yl)oxy]-3,4,5-trihydroxy-2-oxanecarboxylic acid

>  <PUBCHEM_IUPAC_NAME_MARKUP>
(2<I>S</I>,3<I>S</I>,4<I>S</I>,5<I>R</I>,6<I>S</I>)-6-(5,6-dihydroxy-4-oxo-2-phenylchromen-7-yl)oxy-3,4,5-trihydroxyoxane-2-carboxylic acid

>  <PUBCHEM_IUPAC_NAME>
(2S,3S,4S,5R,6S)-6-(5,6-dihydroxy-4-oxo-2-phenylchromen-7-yl)oxy-3,4,5-trihydroxyoxane-2-carboxylic acid

>  <PUBCHEM_IUPAC_SYSTEMATIC_NAME>
(2S,3S,4S,5R,6S)-6-[5,6-bis(oxidanyl)-4-oxidanylidene-2-phenyl-chromen-7-yl]oxy-3,4,5-tris(oxidanyl)oxane-2-carboxylic acid

>  <PUBCHEM_IUPAC_TRADITIONAL_NAME>
(2S,3S,4S,5R,6S)-6-(5,6-dihydroxy-4-keto-2-phenyl-chromen-7-yl)oxy-3,4,5-trihydroxy-tetrahydropyran-2-carboxylic acid

>  <PUBCHEM_IUPAC_INCHI>
InChI=1S/C21H18O11/c22-9-6-10(8-4-2-1-3-5-8)30-11-7-12(14(23)15(24)13(9)11)31-21-18(27)16(25)17(26)19(32-21)20(28)29/h1-7,16-19,21,23-27H,(H,28,29)/t16-,17-,18+,19-,21+/m0/s1

>  <PUBCHEM_IUPAC_INCHIKEY>
IKIIZLYTISPENI-ZFORQUDYSA-N

>  <PUBCHEM_XLOGP3_AA>
1.1

>  <PUBCHEM_EXACT_MASS>
446.084911

>  <PUBCHEM_MOLECULAR_FORMULA>
C21H18O11

>  <PUBCHEM_MOLECULAR_WEIGHT>
446.4

>  <PUBCHEM_OPENEYE_CAN_SMILES>
C1=CC=C(C=C1)C2=CC(=O)C3=C(C(=C(C=C3O2)OC4C(C(C(C(O4)C(=O)O)O)O)O)O)O

>  <PUBCHEM_OPENEYE_ISO_SMILES>
C1=CC=C(C=C1)C2=CC(=O)C3=C(C(=C(C=C3O2)O[C@H]4[C@@H]([C@H]([C@@H]([C@H](O4)C(=O)O)O)O)O)O)O

>  <PUBCHEM_CACTVS_TPSA>
183

>  <PUBCHEM_MONOISOTOPIC_WEIGHT>
446.084911

>  <PUBCHEM_TOTAL_CHARGE>
0

>  <PUBCHEM_HEAVY_ATOM_COUNT>
32

>  <PUBCHEM_ATOM_DEF_STEREO_COUNT>
5

>  <PUBCHEM_ATOM_UDEF_STEREO_COUNT>
0

>  <PUBCHEM_BOND_DEF_STEREO_COUNT>
0

>  <PUBCHEM_BOND_UDEF_STEREO_COUNT>
0

>  <PUBCHEM_ISOTOPIC_ATOM_COUNT>
0

>  <PUBCHEM_COMPONENT_COUNT>
1

>  <PUBCHEM_CACTVS_TAUTO_COUNT>
-1

>  <PUBCHEM_COORDINATE_TYPE>
1
5
255

>  <PUBCHEM_BONDANNOTATIONS>
16  17  5
18  19  8
18  20  8
19  21  8
15  2  5
20  23  8
21  22  8
22  23  8
22  24  8
24  26  8
25  26  8
27  28  8
27  29  8
28  30  8
29  31  8
12  3  5
30  32  8
31  32  8
13  4  6
14  5  6
8  21  8
8  25  8

>  <LF dG>
-4.749

>  <LF VSscore>
-9.281

>  <LF Rank Score>
-10.295

>  <LF LE>
-0.148

>  <Preferred Pose_cresset>
true

>  <Favorite_cresset>
false

>  <Protein_cresset>
6M2N_Monomer_P

>  <MW_cresset>
445.4

>  <#Atoms_cresset>
32

>  <SlogP_cresset>
1.1

>  <TPSA_cresset>
186

>  <Flexibility_cresset>
7.6

>  <#RB_cresset>
9

>  <Rof5_cresset>
1

>  <Filename_cresset>
Baicalin.sdf

>  <Confs_cresset>
0

>  <Poses_cresset>
10

>  <_cresset_fieldpoints>
    -5     -53.325829      -2.312395      17.178989     -9.7345
    -5     -47.875542      -2.097228      16.130186    -14.1606
    -5     -56.599903      -3.392412      16.059574    -11.0340
    -5     -54.766369      -6.315321      14.431074     -7.6715
    -5     -56.829285      -3.680812      14.653100    -10.7705
    -5     -53.651905       3.040583      14.477020     -5.0893
    -5     -46.662216       2.080854      10.849823    -13.5260
    -5     -54.667313       4.031945      14.439804     -5.0078
    -5     -47.716000       3.865933       9.548157    -11.8389
    -5     -51.995430       7.311336      10.183153     -3.7184
    -6     -50.981236      -7.779071      14.204531     12.7976
    -6     -48.848709      -4.463705      13.051389      8.8611
    -6     -46.950523      -2.072966      11.501480     10.2075
    -6     -57.007103       7.346850      10.607991      1.9393
    -6     -55.514046       3.739681       9.214437      1.7817
    -6     -52.756966       1.841536      10.472808      1.3799
    -6     -51.608337       8.327641      15.139765      1.5446
    -6     -55.027084       9.517048      13.492872      1.9027
    -7     -52.112671      -1.532886      12.118660     -2.6604
    -7     -52.828957      -2.335246      17.620876     -2.5154
    -7     -52.336349      -6.196985      12.497250     -1.7949
    -7     -52.021046      -7.448880      17.392643     -1.5247
    -7     -47.446732      -1.848191      16.273949     -2.2924
    -7     -50.872246      -5.827828      18.388340     -1.6238
    -7     -47.875778      -5.861043      16.497305     -1.5477
    -7     -52.321915       1.588889      10.434904     -2.6086
    -7     -54.247688      -5.983829      12.884224     -1.7369
    -7     -55.292782      -6.330365      14.297918     -1.5277
    -7     -53.233604      -0.767087      16.418045     -2.4528
    -7     -53.709404       2.777636      14.599110     -2.4634
    -7     -48.641014      -3.484573      12.779672     -2.7757
    -7     -45.433228      -0.003335      13.314676     -1.4898
    -7     -46.313721       2.887655      12.227067     -1.6575
    -7     -48.126526       0.544421       9.517615     -1.7394
    -7     -48.290516       2.685012      15.574762     -1.8592
    -7     -55.549164       3.360824       9.094252     -0.9920
    -7     -49.386246       4.621083      14.329937     -2.6203
    -7     -51.307381       7.983314      15.585670     -0.9872
    -7     -57.304405       7.354781      10.552379     -0.9671
    -7     -51.299191       6.802134       9.986048     -2.0537
    -7     -55.081879       9.730713      13.707668     -0.9672
    -8     -49.801781       0.687926      13.519865      6.6097
    -8     -51.360260      -4.059077      15.157333      5.1686
    -8     -50.242538       2.676805      12.272635      5.0242
    -8     -53.439835       5.764157      12.284733      7.1497

$$$$
W_Forsythoside E_D
  xed2sdf_05210316543D
 
 62 64  0  0  1  0  0  0  0  0999 V2000
  -49.9955   -3.8728   15.9289 O   0  0  0  0  0  0  0  0  0  0  0  0
  -52.4105   -4.4348   14.9929 O   0  0  0  0  0  0  0  0  0  0  0  0
  -54.7975   -4.7558   15.1989 O   0  0  0  0  0  0  0  0  0  0  0  0
  -50.0495   -7.3698   17.2229 O   0  0  0  0  0  0  0  0  0  0  0  0
  -48.2585   -2.2028   15.9699 O   0  0  0  0  0  0  0  0  0  0  0  0
  -47.8055   -6.2458   18.6039 O   0  0  0  0  0  0  0  0  0  0  0  0
  -46.5445   -3.9988   17.2869 O   0  0  0  0  0  0  0  0  0  0  0  0
  -54.8765   -1.9318   16.1059 O   0  0  0  0  0  0  0  0  0  0  0  0
  -54.6425   -0.9348   13.5199 O   0  0  0  0  0  0  0  0  0  0  0  0
  -55.7555   -3.1258   12.0039 O   0  0  0  0  0  0  0  0  0  0  0  0
  -42.7435   -2.4148   15.5109 O   0  0  0  0  0  0  0  0  0  0  0  0
  -42.7935   -1.3268   18.0389 O   0  0  0  0  0  0  0  0  0  0  0  0
  -50.2985   -5.2838   15.9269 C   0  0  0  0  0  0  0  0  0  0  0  0
  -49.7905   -5.9568   17.2219 C   0  0  0  0  0  0  0  0  0  0  0  0
  -48.2765   -5.7138   17.3569 C   0  0  0  0  0  0  0  0  0  0  0  0
  -47.9635   -4.2088   17.2779 C   0  0  0  0  0  0  0  0  0  0  0  0
  -53.8705   -2.4778   15.2409 C   0  0  0  0  0  0  0  0  0  0  0  0
  -53.6455   -3.9688   15.5699 C   0  0  0  0  0  0  0  0  0  0  0  0
  -54.2845   -2.3028   13.7659 C   0  0  0  0  0  0  0  0  0  0  0  0
  -55.4645   -3.2278   13.4069 C   0  0  0  0  0  0  0  0  0  0  0  0
  -48.5755   -3.6068   15.9979 C   0  0  0  0  0  0  0  0  0  0  0  0
  -51.8145   -5.4948   15.7659 C   0  0  0  0  0  0  0  0  0  0  0  0
  -55.1015   -4.6758   13.7919 C   0  0  0  0  0  0  0  0  0  0  0  0
  -56.2715   -5.6158   13.4629 C   0  0  0  0  0  0  0  0  0  0  0  0
  -48.1995   -1.6858   14.6319 C   0  0  0  0  0  0  0  0  0  0  0  0
  -47.1625   -0.5528   14.5549 C   0  0  0  0  0  0  0  0  0  0  0  0
  -45.9805   -0.7598   15.4839 C   0  0  0  0  0  0  0  0  0  0  0  0
  -44.8895   -1.4958   15.0709 C   0  0  0  0  0  0  0  0  0  0  0  0
  -45.9965   -0.2128   16.7479 C   0  0  0  0  0  0  0  0  0  0  0  0
  -43.8205   -1.6868   15.9199 C   0  0  0  0  0  0  0  0  0  0  0  0
  -44.9325   -0.4008   17.6019 C   0  0  0  0  0  0  0  0  0  0  0  0
  -43.8445   -1.1378   17.1919 C   0  0  0  0  0  0  0  0  0  0  0  0
  -49.8285   -5.7098   15.1539 H   0  0  0  0  0  0  0  0  0  0  0  0
  -50.2805   -5.5538   17.9949 H   0  0  0  0  0  0  0  0  0  0  0  0
  -47.8095   -6.1778   16.6029 H   0  0  0  0  0  0  0  0  0  0  0  0
  -48.3645   -3.7548   18.0739 H   0  0  0  0  0  0  0  0  0  0  0  0
  -53.0115   -1.9868   15.3869 H   0  0  0  0  0  0  0  0  0  0  0  0
  -53.5465   -4.0788   16.5589 H   0  0  0  0  0  0  0  0  0  0  0  0
  -53.5065   -2.5538   13.1899 H   0  0  0  0  0  0  0  0  0  0  0  0
  -56.2825   -2.9528   13.9119 H   0  0  0  0  0  0  0  0  0  0  0  0
  -48.1855   -4.0338   15.1829 H   0  0  0  0  0  0  0  0  0  0  0  0
  -54.2955   -4.9538   13.2679 H   0  0  0  0  0  0  0  0  0  0  0  0
  -50.5925   -7.6448   16.4229 H   0  0  0  0  0  0  0  0  0  0  0  0
  -48.1605   -7.1728   18.7639 H   0  0  0  0  0  0  0  0  0  0  0  0
  -46.2135   -3.6898   16.3889 H   0  0  0  0  0  0  0  0  0  0  0  0
  -55.6945   -2.5168   16.1309 H   0  0  0  0  0  0  0  0  0  0  0  0
  -55.5835   -0.7438   13.8199 H   0  0  0  0  0  0  0  0  0  0  0  0
  -55.3945   -3.9168   11.4969 H   0  0  0  0  0  0  0  0  0  0  0  0
  -42.3625   -2.9628   16.2639 H   0  0  0  0  0  0  0  0  0  0  0  0
  -42.1925   -2.0678   17.7199 H   0  0  0  0  0  0  0  0  0  0  0  0
  -51.9765   -6.3678   15.3049 H   0  0  0  0  0  0  0  0  0  0  0  0
  -52.2305   -5.4958   16.6749 H   0  0  0  0  0  0  0  0  0  0  0  0
  -57.0175   -5.0808   13.0679 H   0  0  0  0  0  0  0  0  0  0  0  0
  -55.9725   -6.3108   12.8089 H   0  0  0  0  0  0  0  0  0  0  0  0
  -56.5845   -6.0678   14.2979 H   0  0  0  0  0  0  0  0  0  0  0  0
  -49.0985   -1.3348   14.3709 H   0  0  0  0  0  0  0  0  0  0  0  0
  -47.9315   -2.4198   14.0069 H   0  0  0  0  0  0  0  0  0  0  0  0
  -47.6115    0.3082   14.7939 H   0  0  0  0  0  0  0  0  0  0  0  0
  -46.8055   -0.5398   13.6199 H   0  0  0  0  0  0  0  0  0  0  0  0
  -44.8735   -1.8908   14.1529 H   0  0  0  0  0  0  0  0  0  0  0  0
  -46.7865    0.3242   17.0469 H   0  0  0  0  0  0  0  0  0  0  0  0
  -44.9505   -0.0018   18.5179 H   0  0  0  0  0  0  0  0  0  0  0  0
  1 13  1  0
  1 21  1  0
  2 22  1  0
  3 18  1  0
  3 23  1  0
  5 25  1  0
 11 30  1  0
 12 32  1  0
 13 14  1  0
 13 22  1  0
 14  4  1  0
 14 15  1  0
 15  6  1  0
 15 16  1  0
 16  7  1  0
 16 21  1  0
 17  8  1  0
 17 18  1  0
 17 19  1  0
 18  2  1  0
 19  9  1  0
 19 20  1  0
 20 10  1  0
 20 23  1  0
 21  5  1  0
 23 24  1  0
 25 26  1  0
 26 27  1  0
 27 28  2  0
 27 29  1  0
 28 30  1  0
 29 31  2  0
 30 32  2  0
 31 32  1  0
  4 43  1  0
  6 44  1  0
  7 45  1  0
  8 46  1  0
  9 47  1  0
 10 48  1  0
 11 49  1  0
 12 50  1  0
 13 33  1  0
 14 34  1  0
 15 35  1  0
 16 36  1  0
 17 37  1  0
 18 38  1  0
 19 39  1  0
 20 40  1  0
 21 41  1  0
 22 51  1  0
 22 52  1  0
 23 42  1  0
 24 53  1  0
 24 54  1  0
 24 55  1  0
 25 56  1  0
 25 57  1  0
 26 58  1  0
 26 59  1  0
 28 60  1  0
 29 61  1  0
 31 62  1  0
M  END
>  <BioMolTech Lead Finder dG>
-4.419

>  <BioMolTech Lead Finder VSscore>
-8.317

>  <BioMolTech Lead Finder Rank score>
-7.31

>  <BioMolTech Lead Finder LE>
-0.138

>  <BioMolTech Lead Finder Structure Name>
/var/folders/xd/y7jw_xv579q2qqq7kks92xd80000gn/T/LeadFinder_61398_1/Ligand_1.sdf

>  <BioMolTech Lead Finder SDF id>
0

>  <BioMolTech Lead Finder Pose rank>
0

>  <BioMolTech Lead Finder version>
2001 1, 19 January 2019

>  <PUBCHEM_COMPOUND_CID>
69634125

>  <PUBCHEM_COMPOUND_CANONICALIZED>
1

>  <PUBCHEM_CACTVS_COMPLEXITY>
581

>  <PUBCHEM_CACTVS_HBOND_ACCEPTOR>
12

>  <PUBCHEM_CACTVS_HBOND_DONOR>
8

>  <PUBCHEM_CACTVS_ROTATABLE_BOND>
7

>  <PUBCHEM_CACTVS_SUBSKEYS>
AAADceB4PAAAAAAAAAAAAAAAAAAAAAAAAAA0SIAAAAAAAAABAAAAGgAACAAADBSwmAMyDoAABgCAAiBCAAACAAAgIAAIiAAGiIgZNiKCERKicAElwBEPmAfA4LwOIAABAAAAQABAAAIAAACAAAAAAAAAAA==

>  <PUBCHEM_IUPAC_OPENEYE_NAME>
(2R,3R,4R,5R,6S)-2-[[(2R,3S,4S,5R,6R)-6-[2-(3,4-dihydroxyphenyl)ethoxy]-3,4,5-trihydroxy-tetrahydropyran-2-yl]methoxy]-6-methyl-tetrahydropyran-3,4,5-triol

>  <PUBCHEM_IUPAC_CAS_NAME>
(2R,3R,4R,5R,6S)-2-[[(2R,3S,4S,5R,6R)-6-[2-(3,4-dihydroxyphenyl)ethoxy]-3,4,5-trihydroxy-2-oxanyl]methoxy]-6-methyloxane-3,4,5-triol

>  <PUBCHEM_IUPAC_NAME_MARKUP>
(2<I>R</I>,3<I>R</I>,4<I>R</I>,5<I>R</I>,6<I>S</I>)-2-[[(2<I>R</I>,3<I>S</I>,4<I>S</I>,5<I>R</I>,6<I>R</I>)-6-[2-(3,4-dihydroxyphenyl)ethoxy]-3,4,5-trihydroxyoxan-2-yl]methoxy]-6-methyloxane-3,4,5-tri

>  <PUBCHEM_IUPAC_NAME>
(2R,3R,4R,5R,6S)-2-[[(2R,3S,4S,5R,6R)-6-[2-(3,4-dihydroxyphenyl)ethoxy]-3,4,5-trihydroxyoxan-2-yl]methoxy]-6-methyloxane-3,4,5-triol

>  <PUBCHEM_IUPAC_SYSTEMATIC_NAME>
(2R,3R,4R,5R,6S)-2-[[(2R,3S,4S,5R,6R)-6-[2-[3,4-bis(oxidanyl)phenyl]ethoxy]-3,4,5-tris(oxidanyl)oxan-2-yl]methoxy]-6-methyl-oxane-3,4,5-triol

>  <PUBCHEM_IUPAC_TRADITIONAL_NAME>
(2R,3R,4R,5R,6S)-2-[[(2R,3S,4S,5R,6R)-6-[2-(3,4-dihydroxyphenyl)ethoxy]-3,4,5-trihydroxy-tetrahydropyran-2-yl]methoxy]-6-methyl-tetrahydropyran-3,4,5-triol

>  <PUBCHEM_IUPAC_INCHI>
InChI=1S/C20H30O12/c1-8-13(23)15(25)17(27)20(31-8)30-7-12-14(24)16(26)18(28)19(32-12)29-5-4-9-2-3-10(21)11(22)6-9/h2-3,6,8,12-28H,4-5,7H2,1H3/t8-,12+,13-,14+,15+,16-,17+,18+,19+,20+/m0/s1

>  <PUBCHEM_IUPAC_INCHIKEY>
QIMGUQIHCNDUKU-OJJLXHDHSA-N

>  <PUBCHEM_XLOGP3_AA>
-2.5

>  <PUBCHEM_EXACT_MASS>
462.173726

>  <PUBCHEM_MOLECULAR_FORMULA>
C20H30O12

>  <PUBCHEM_MOLECULAR_WEIGHT>
462.4

>  <PUBCHEM_OPENEYE_CAN_SMILES>
CC1C(C(C(C(O1)OCC2C(C(C(C(O2)OCCC3=CC(=C(C=C3)O)O)O)O)O)O)O)O

>  <PUBCHEM_OPENEYE_ISO_SMILES>
C[C@H]1[C@@H]([C@H]([C@H]([C@@H](O1)OC[C@@H]2[C@H]([C@@H]([C@H]([C@@H](O2)OCCC3=CC(=C(C=C3)O)O)O)O)O)O)O)O

>  <PUBCHEM_CACTVS_TPSA>
199

>  <PUBCHEM_MONOISOTOPIC_WEIGHT>
462.173726

>  <PUBCHEM_TOTAL_CHARGE>
0

>  <PUBCHEM_HEAVY_ATOM_COUNT>
32

>  <PUBCHEM_ATOM_DEF_STEREO_COUNT>
10

>  <PUBCHEM_ATOM_UDEF_STEREO_COUNT>
0

>  <PUBCHEM_BOND_DEF_STEREO_COUNT>
0

>  <PUBCHEM_BOND_UDEF_STEREO_COUNT>
0

>  <PUBCHEM_ISOTOPIC_ATOM_COUNT>
0

>  <PUBCHEM_COMPONENT_COUNT>
1

>  <PUBCHEM_CACTVS_TAUTO_COUNT>
-1

>  <PUBCHEM_COORDINATE_TYPE>
1
5
255

>  <PUBCHEM_BONDANNOTATIONS>
20  10  5
13  22  5
18  2  5
23  24  6
27  28  8
27  29  8
28  30  8
29  31  8
30  32  8
31  32  8
14  4  6
21  5  5
15  6  5
16  7  6
17  8  6
19  9  6

>  <LF dG>
-4.419

>  <LF VSscore>
-8.317

>  <LF Rank Score>
-7.31

>  <LF LE>
-0.138

>  <Preferred Pose_cresset>
true

>  <Favorite_cresset>
false

>  <Protein_cresset>
6M2N_Monomer_P

>  <MW_cresset>
462.4

>  <#Atoms_cresset>
32

>  <SlogP_cresset>
-0.4

>  <TPSA_cresset>
198.8

>  <Flexibility_cresset>
15.9

>  <#RB_cresset>
15

>  <Rof5_cresset>
2

>  <Filename_cresset>
Forsythoside E.sdf

>  <Confs_cresset>
0

>  <Poses_cresset>
10

>  <_cresset_fieldpoints>
    -5     -54.511475      -0.219539      16.751627     -8.7206
    -5     -50.711426      -2.015974      16.609322     -8.1832
    -5     -55.740997      -5.830286      16.602486     -1.1816
    -5     -50.448433      -8.281191      18.831501     -3.0839
    -5     -46.087471      -5.045519      18.970739    -14.8141
    -5     -48.608078      -1.268774      17.668865     -9.4600
    -5     -45.790001      -3.385306      18.817009    -14.2918
    -5     -53.522038       0.369168      12.990587    -10.2364
    -5     -43.538956       1.484003      15.545516     -6.2802
    -5     -41.951309       0.656537      18.295029     -5.3740
    -6     -50.557182      -8.067008      14.709680     10.6324
    -6     -54.521389      -5.345592      10.906863      8.6891
    -6     -57.333881      -3.131244      15.937291      6.7212
    -6     -47.859421      -6.027784      14.097906      7.6396
    -6     -47.870720      -8.944016      18.357008      2.4151
    -6     -46.157646      -4.428665      14.508126      7.2724
    -6     -41.218464      -3.518502      17.434927      9.1158
    -7     -50.128021      -7.958523      19.637375     -1.3584
    -7     -52.339149      -7.831350      17.996494     -1.7427
    -7     -48.827484      -8.172691      15.032581     -1.9096
    -7     -49.002754      -0.960951      17.838467     -2.6633
    -7     -51.276375      -2.692378      17.579403     -3.2448
    -7     -49.069580      -5.116785      20.421829     -1.6690
    -7     -45.646545      -3.176414      19.271832     -2.1931
    -7     -57.071362      -0.935850      15.452258     -1.8377
    -7     -55.306801      -3.095917      18.283115     -1.4605
    -7     -55.986023      -0.712367      11.436481     -1.5332
    -7     -53.113129      -4.134694      11.131316     -1.8687
    -7     -57.653709      -3.918365      10.843372     -1.5285
    -7     -55.171753       0.431861      15.687366     -1.5591
    -7     -54.029930      -5.542895      10.780772     -1.5335
    -7     -40.524765      -1.422867      16.276443     -1.4589
    -7     -43.734474       1.781877      15.026241     -1.8196
    -7     -44.317879      -4.650955      17.215107     -2.2542
    -7     -45.864841      -4.516141      14.355804     -2.7332
    -7     -50.953548      -3.111720      13.621843     -3.6551
    -7     -47.494041      -6.165257      14.025815     -1.9766
    -7     -56.819294      -4.373979      16.524921     -2.3747
    -7     -54.654919      -7.045498      16.076412     -2.2578
    -8     -48.902809      -5.087399      16.717144      5.1680
    -8     -50.874641      -5.808027      16.385265      4.3750
    -8     -54.439537      -3.292119      14.125848      4.8628
    -8     -44.966957      -0.927167      16.321859      6.9197
    -8     -55.851891      -4.664727      13.361719      4.5453
    -8     -48.175804      -2.870127      14.523146      2.3083

$$$$
Untitled
  xed2sdf_05210316543D
 
 62 64  0  0  1  0  0  0  0  0999 V2000
  -49.5230   -0.7622   15.6574 O   0  0  0  0  0  0  0  0  0  0  0  0
  -46.4950   -0.0032   16.4574 O   0  0  0  0  0  0  0  0  0  0  0  0
  -46.0760   -0.7982   18.7024 O   0  0  0  0  0  0  0  0  0  0  0  0
  -47.0650   -3.0922   14.0964 O   0  0  0  0  0  0  0  0  0  0  0  0
  -51.8550   -1.0552   16.1894 O   0  0  0  0  0  0  0  0  0  0  0  0
  -49.5690   -4.3042   13.4154 O   0  0  0  0  0  0  0  0  0  0  0  0
  -51.7680   -3.6802   15.1894 O   0  0  0  0  0  0  0  0  0  0  0  0
  -45.1990   -3.3202   17.4084 O   0  0  0  0  0  0  0  0  0  0  0  0
  -42.7260   -2.2712   16.6904 O   0  0  0  0  0  0  0  0  0  0  0  0
  -42.4080   -0.2322   18.7114 O   0  0  0  0  0  0  0  0  0  0  0  0
  -48.3060    1.0398   12.2904 O   0  0  0  0  0  0  0  0  0  0  0  0
  -49.0800    3.4078   11.1194 O   0  0  0  0  0  0  0  0  0  0  0  0
  -48.2500   -1.4122   15.4634 C   0  0  0  0  0  0  0  0  0  0  0  0
  -48.3140   -2.4062   14.2824 C   0  0  0  0  0  0  0  0  0  0  0  0
  -49.4280   -3.4342   14.5474 C   0  0  0  0  0  0  0  0  0  0  0  0
  -50.7630   -2.7212   14.8294 C   0  0  0  0  0  0  0  0  0  0  0  0
  -45.1490   -2.0292   16.7854 C   0  0  0  0  0  0  0  0  0  0  0  0
  -46.2940   -1.1422   17.3164 C   0  0  0  0  0  0  0  0  0  0  0  0
  -43.7820   -1.3652   17.0454 C   0  0  0  0  0  0  0  0  0  0  0  0
  -43.6400   -0.9452   18.5224 C   0  0  0  0  0  0  0  0  0  0  0  0
  -50.5860   -1.6942   15.9644 C   0  0  0  0  0  0  0  0  0  0  0  0
  -47.1530   -0.3592   15.2264 C   0  0  0  0  0  0  0  0  0  0  0  0
  -44.8490   -0.0722   18.9124 C   0  0  0  0  0  0  0  0  0  0  0  0
  -44.7420    0.3418   20.3884 C   0  0  0  0  0  0  0  0  0  0  0  0
  -51.7720    0.3738   16.0774 C   0  0  0  0  0  0  0  0  0  0  0  0
  -52.4960    0.8408   14.8034 C   0  0  0  0  0  0  0  0  0  0  0  0
  -51.5740    1.5218   13.8074 C   0  0  0  0  0  0  0  0  0  0  0  0
  -50.3510    0.9658   13.4964 C   0  0  0  0  0  0  0  0  0  0  0  0
  -51.9590    2.7038   13.2144 C   0  0  0  0  0  0  0  0  0  0  0  0
  -49.5150    1.5908   12.5974 C   0  0  0  0  0  0  0  0  0  0  0  0
  -51.1270    3.3338   12.3154 C   0  0  0  0  0  0  0  0  0  0  0  0
  -49.9040    2.7818   12.0054 C   0  0  0  0  0  0  0  0  0  0  0  0
  -48.0270   -1.9302   16.2894 H   0  0  0  0  0  0  0  0  0  0  0  0
  -48.5060   -1.8872   13.4484 H   0  0  0  0  0  0  0  0  0  0  0  0
  -49.1790   -3.9762   15.3504 H   0  0  0  0  0  0  0  0  0  0  0  0
  -51.0530   -2.2422   14.0004 H   0  0  0  0  0  0  0  0  0  0  0  0
  -45.2630   -2.1382   15.7974 H   0  0  0  0  0  0  0  0  0  0  0  0
  -47.1510   -1.6572   17.2954 H   0  0  0  0  0  0  0  0  0  0  0  0
  -43.7200   -0.5422   16.4804 H   0  0  0  0  0  0  0  0  0  0  0  0
  -43.6220   -1.7552   19.1084 H   0  0  0  0  0  0  0  0  0  0  0  0
  -50.3060   -2.1462   16.8114 H   0  0  0  0  0  0  0  0  0  0  0  0
  -44.8510    0.7468   18.3384 H   0  0  0  0  0  0  0  0  0  0  0  0
  -46.6010   -2.7912   13.2564 H   0  0  0  0  0  0  0  0  0  0  0  0
  -48.7250   -4.8242   13.2454 H   0  0  0  0  0  0  0  0  0  0  0  0
  -51.4900   -4.6132   14.9374 H   0  0  0  0  0  0  0  0  0  0  0  0
  -44.6020   -3.9782   16.9374 H   0  0  0  0  0  0  0  0  0  0  0  0
  -43.0910   -3.1652   16.4104 H   0  0  0  0  0  0  0  0  0  0  0  0
  -41.6140   -0.8072   18.4844 H   0  0  0  0  0  0  0  0  0  0  0  0
  -48.4110    0.2068   11.7364 H   0  0  0  0  0  0  0  0  0  0  0  0
  -49.3420    3.2078   10.1684 H   0  0  0  0  0  0  0  0  0  0  0  0
  -46.4770   -0.7272   14.5884 H   0  0  0  0  0  0  0  0  0  0  0  0
  -47.5820    0.4618   14.8484 H   0  0  0  0  0  0  0  0  0  0  0  0
  -43.9070   -0.0472   20.7764 H   0  0  0  0  0  0  0  0  0  0  0  0
  -44.7130    1.3398   20.4574 H   0  0  0  0  0  0  0  0  0  0  0  0
  -45.5370    0.0038   20.8914 H   0  0  0  0  0  0  0  0  0  0  0  0
  -50.8120    0.6488   16.0364 H   0  0  0  0  0  0  0  0  0  0  0  0
  -52.2070    0.7918   16.8744 H   0  0  0  0  0  0  0  0  0  0  0  0
  -53.2170    1.4828   15.0634 H   0  0  0  0  0  0  0  0  0  0  0  0
  -52.8650    0.0268   14.3554 H   0  0  0  0  0  0  0  0  0  0  0  0
  -50.0710    0.1058   13.9234 H   0  0  0  0  0  0  0  0  0  0  0  0
  -52.8470    3.1068   13.4374 H   0  0  0  0  0  0  0  0  0  0  0  0
  -51.4110    4.1918   11.8884 H   0  0  0  0  0  0  0  0  0  0  0  0
  1 13  1  0
  1 21  1  0
  2 22  1  0
  3 18  1  0
  3 23  1  0
  5 25  1  0
 11 30  1  0
 12 32  1  0
 13 14  1  0
 13 22  1  0
 14  4  1  0
 14 15  1  0
 15  6  1  0
 15 16  1  0
 16  7  1  0
 16 21  1  0
 17  8  1  0
 17 18  1  0
 17 19  1  0
 18  2  1  0
 19  9  1  0
 19 20  1  0
 20 10  1  0
 20 23  1  0
 21  5  1  0
 23 24  1  0
 25 26  1  0
 26 27  1  0
 27 28  2  0
 27 29  1  0
 28 30  1  0
 29 31  2  0
 30 32  2  0
 31 32  1  0
  4 43  1  0
  6 44  1  0
  7 45  1  0
  8 46  1  0
  9 47  1  0
 10 48  1  0
 11 49  1  0
 12 50  1  0
 13 33  1  0
 14 34  1  0
 15 35  1  0
 16 36  1  0
 17 37  1  0
 18 38  1  0
 19 39  1  0
 20 40  1  0
 21 41  1  0
 22 51  1  0
 22 52  1  0
 23 42  1  0
 24 53  1  0
 24 54  1  0
 24 55  1  0
 25 56  1  0
 25 57  1  0
 26 58  1  0
 26 59  1  0
 28 60  1  0
 29 61  1  0
 31 62  1  0
M  END
>  <BioMolTech Lead Finder dG>
-5.283

>  <BioMolTech Lead Finder VSscore>
-11.038

>  <BioMolTech Lead Finder Rank score>
-7.733

>  <BioMolTech Lead Finder LE>
-0.165

>  <BioMolTech Lead Finder Structure Name>
/var/folders/xd/y7jw_xv579q2qqq7kks92xd80000gn/T/LeadFinder_58629_1/Ligand_1.sdf

>  <BioMolTech Lead Finder SDF id>
0

>  <BioMolTech Lead Finder Pose rank>
0

>  <BioMolTech Lead Finder version>
2001 1, 19 January 2019

>  <PUBCHEM_COMPOUND_CID>
69634125

>  <PUBCHEM_COMPOUND_CANONICALIZED>
1

>  <PUBCHEM_CACTVS_COMPLEXITY>
581

>  <PUBCHEM_CACTVS_HBOND_ACCEPTOR>
12

>  <PUBCHEM_CACTVS_HBOND_DONOR>
8

>  <PUBCHEM_CACTVS_ROTATABLE_BOND>
7

>  <PUBCHEM_CACTVS_SUBSKEYS>
AAADceB4PAAAAAAAAAAAAAAAAAAAAAAAAAA0SIAAAAAAAAABAAAAGgAACAAADBSwmAMyDoAABgCAAiBCAAACAAAgIAAIiAAGiIgZNiKCERKicAElwBEPmAfA4LwOIAABAAAAQABAAAIAAACAAAAAAAAAAA==

>  <PUBCHEM_IUPAC_OPENEYE_NAME>
(2R,3R,4R,5R,6S)-2-[[(2R,3S,4S,5R,6R)-6-[2-(3,4-dihydroxyphenyl)ethoxy]-3,4,5-trihydroxy-tetrahydropyran-2-yl]methoxy]-6-methyl-tetrahydropyran-3,4,5-triol

>  <PUBCHEM_IUPAC_CAS_NAME>
(2R,3R,4R,5R,6S)-2-[[(2R,3S,4S,5R,6R)-6-[2-(3,4-dihydroxyphenyl)ethoxy]-3,4,5-trihydroxy-2-oxanyl]methoxy]-6-methyloxane-3,4,5-triol

>  <PUBCHEM_IUPAC_NAME_MARKUP>
(2<I>R</I>,3<I>R</I>,4<I>R</I>,5<I>R</I>,6<I>S</I>)-2-[[(2<I>R</I>,3<I>S</I>,4<I>S</I>,5<I>R</I>,6<I>R</I>)-6-[2-(3,4-dihydroxyphenyl)ethoxy]-3,4,5-trihydroxyoxan-2-yl]methoxy]-6-methyloxane-3,4,5-tri

>  <PUBCHEM_IUPAC_NAME>
(2R,3R,4R,5R,6S)-2-[[(2R,3S,4S,5R,6R)-6-[2-(3,4-dihydroxyphenyl)ethoxy]-3,4,5-trihydroxyoxan-2-yl]methoxy]-6-methyloxane-3,4,5-triol

>  <PUBCHEM_IUPAC_SYSTEMATIC_NAME>
(2R,3R,4R,5R,6S)-2-[[(2R,3S,4S,5R,6R)-6-[2-[3,4-bis(oxidanyl)phenyl]ethoxy]-3,4,5-tris(oxidanyl)oxan-2-yl]methoxy]-6-methyl-oxane-3,4,5-triol

>  <PUBCHEM_IUPAC_TRADITIONAL_NAME>
(2R,3R,4R,5R,6S)-2-[[(2R,3S,4S,5R,6R)-6-[2-(3,4-dihydroxyphenyl)ethoxy]-3,4,5-trihydroxy-tetrahydropyran-2-yl]methoxy]-6-methyl-tetrahydropyran-3,4,5-triol

>  <PUBCHEM_IUPAC_INCHI>
InChI=1S/C20H30O12/c1-8-13(23)15(25)17(27)20(31-8)30-7-12-14(24)16(26)18(28)19(32-12)29-5-4-9-2-3-10(21)11(22)6-9/h2-3,6,8,12-28H,4-5,7H2,1H3/t8-,12+,13-,14+,15+,16-,17+,18+,19+,20+/m0/s1

>  <PUBCHEM_IUPAC_INCHIKEY>
QIMGUQIHCNDUKU-OJJLXHDHSA-N

>  <PUBCHEM_XLOGP3_AA>
-2.5

>  <PUBCHEM_EXACT_MASS>
462.173726

>  <PUBCHEM_MOLECULAR_FORMULA>
C20H30O12

>  <PUBCHEM_MOLECULAR_WEIGHT>
462.4

>  <PUBCHEM_OPENEYE_CAN_SMILES>
CC1C(C(C(C(O1)OCC2C(C(C(C(O2)OCCC3=CC(=C(C=C3)O)O)O)O)O)O)O)O

>  <PUBCHEM_OPENEYE_ISO_SMILES>
C[C@H]1[C@@H]([C@H]([C@H]([C@@H](O1)OC[C@@H]2[C@H]([C@@H]([C@H]([C@@H](O2)OCCC3=CC(=C(C=C3)O)O)O)O)O)O)O)O

>  <PUBCHEM_CACTVS_TPSA>
199

>  <PUBCHEM_MONOISOTOPIC_WEIGHT>
462.173726

>  <PUBCHEM_TOTAL_CHARGE>
0

>  <PUBCHEM_HEAVY_ATOM_COUNT>
32

>  <PUBCHEM_ATOM_DEF_STEREO_COUNT>
10

>  <PUBCHEM_ATOM_UDEF_STEREO_COUNT>
0

>  <PUBCHEM_BOND_DEF_STEREO_COUNT>
0

>  <PUBCHEM_BOND_UDEF_STEREO_COUNT>
0

>  <PUBCHEM_ISOTOPIC_ATOM_COUNT>
0

>  <PUBCHEM_COMPONENT_COUNT>
1

>  <PUBCHEM_CACTVS_TAUTO_COUNT>
-1

>  <PUBCHEM_COORDINATE_TYPE>
1
5
255

>  <PUBCHEM_BONDANNOTATIONS>
20  10  5
13  22  5
18  2  5
23  24  6
27  28  8
27  29  8
28  30  8
29  31  8
30  32  8
31  32  8
14  4  6
21  5  5
15  6  5
16  7  6
17  8  6
19  9  6

>  <LF dG>
-5.283

>  <LF VSscore>
-11.038

>  <LF Rank Score>
-7.733

>  <LF LE>
-0.165

>  <Preferred Pose_cresset>
true

>  <Favorite_cresset>
false

>  <Protein_cresset>
6M2N_Monomer_P

>  <MW_cresset>
462.4

>  <#Atoms_cresset>
32

>  <SlogP_cresset>
-0.4

>  <TPSA_cresset>
198.8

>  <Flexibility_cresset>
15.9

>  <#RB_cresset>
15

>  <Rof5_cresset>
2

>  <Filename_cresset>
Forsythoside E.sdf

>  <Confs_cresset>
0

>  <Poses_cresset>
10

>  <_cresset_fieldpoints>
    -5     -47.335297       1.511971      17.538311     -8.7794
    -5     -42.178860       1.545821      19.026150     -9.7158
    -5     -53.247616      -2.638377      16.011473    -13.2555
    -5     -51.087261      -4.365317      12.277521     -4.2444
    -5     -41.135078      -1.512683      16.014036     -3.9018
    -5     -48.952682       3.123100      15.151667     -7.6168
    -5     -46.050831      -2.736586      19.564058     -9.0431
    -5     -52.958054       0.257698      11.496657     -2.8299
    -6     -43.888344      -4.325206      15.379059     14.2098
    -6     -40.628830      -2.259563      18.935478      3.1020
    -6     -49.598030       2.266418       8.690907      5.9578
    -6     -46.882782      -1.561502      11.960303     13.5813
    -6     -48.681690      -3.855423      17.480520      3.5014
    -6     -54.903236       3.299600      14.151686      1.5261
    -6     -53.538803       5.140851      11.600208      1.8621
    -7     -44.843594       1.722376      15.962229     -2.4566
    -7     -45.859333      -3.056608      19.882845     -2.5089
    -7     -46.796738      -4.600195      16.143475     -2.8645
    -7     -44.529922      -1.880470      13.438803     -2.0351
    -7     -53.872055      -2.209188      15.386824     -2.2107
    -7     -50.336563      -6.468554      14.188564     -1.3706
    -7     -50.873222      -4.804452      17.298653     -1.7699
    -7     -51.814754      -4.776090      12.610275     -1.5166
    -7     -52.219070      -1.250922      11.986872     -2.3574
    -7     -43.004631      -4.227460      18.491783     -1.9714
    -7     -41.421883      -0.844806      20.854649     -1.5514
    -7     -47.380936       1.732054      10.057213     -1.5413
    -7     -46.487682      -0.770370      12.035927     -2.3523
    -7     -49.846775       5.521422      10.021721     -1.2571
    -7     -47.216011      -4.431026      16.855549     -2.8395
    -7     -48.906216       0.659672      17.802166     -3.0804
    -7     -42.578682       1.866492      17.392185     -1.8102
    -7     -48.902328       2.261474      16.155739     -2.9172
    -7     -50.246788      -1.657096      11.588324     -2.7059
    -7     -53.709877       5.533756      12.690336     -0.9995
    -8     -49.406853      -2.455475      15.047712      5.2195
    -8     -50.790932       2.143325      12.943075      6.9408
    -8     -47.739868      -1.257067      14.704370      4.3946
    -8     -44.558922      -0.968222      17.644760      4.8362
    -8     -44.303440      -0.158449      19.593832      4.4512
    -8     -51.458656       0.931098      14.527077      5.6636

$$$$
W_Lopinavir_D
  xed2sdf_05210316543D
 
 94 97  0  0  1  0  0  0  0  0999 V2000
  -48.3240   -6.7879   19.9986 O   0  0  0  0  0  0  0  0  0  0  0  0
  -46.4090   -2.7189   17.7036 O   0  0  0  0  0  0  0  0  0  0  0  0
  -48.0880   -3.0499   12.9756 O   0  0  0  0  0  0  0  0  0  0  0  0
  -45.6970  -10.4609   18.3136 O   0  0  0  0  0  0  0  0  0  0  0  0
  -43.8320   -9.7179   20.6036 O   0  0  0  0  0  0  0  0  0  0  0  0
  -48.2040   -1.8879   14.9056 N   0  0  0  0  0  0  0  0  0  0  0  0
  -47.9560   -4.0489   16.6976 N   0  0  0  0  0  0  0  0  0  0  0  0
  -46.4830   -8.4769   19.1166 N   0  0  0  0  0  0  0  0  0  0  0  0
  -49.9490   -1.8609   13.3336 N   0  0  0  0  0  0  0  0  0  0  0  0
  -48.2620   -4.7929   17.9256 C   0  0  0  0  0  0  0  0  0  0  0  0
  -46.8970   -2.4119   15.3536 C   0  0  0  0  0  0  0  0  0  0  0  0
  -47.9750   -6.2749   17.6066 C   0  0  0  0  0  0  0  0  0  0  0  0
  -48.5190   -7.2669   18.6576 C   0  0  0  0  0  0  0  0  0  0  0  0
  -45.8130   -1.3069   15.3646 C   0  0  0  0  0  0  0  0  0  0  0  0
  -47.8030   -8.6219   18.4846 C   0  0  0  0  0  0  0  0  0  0  0  0
  -49.7350   -4.5029   18.2836 C   0  0  0  0  0  0  0  0  0  0  0  0
  -47.0410   -3.0659   16.7156 C   0  0  0  0  0  0  0  0  0  0  0  0
  -48.9210   -0.9609   15.7996 C   0  0  0  0  0  0  0  0  0  0  0  0
  -49.8730   -0.0589   15.0076 C   0  0  0  0  0  0  0  0  0  0  0  0
  -48.6230   -9.7519   19.1446 C   0  0  0  0  0  0  0  0  0  0  0  0
  -48.7230   -2.2919   13.7156 C   0  0  0  0  0  0  0  0  0  0  0  0
  -46.1620   -0.1659   14.3936 C   0  0  0  0  0  0  0  0  0  0  0  0
  -44.4490   -1.8759   14.9356 C   0  0  0  0  0  0  0  0  0  0  0  0
  -50.7710   -0.9839   14.1816 C   0  0  0  0  0  0  0  0  0  0  0  0
  -50.7650   -4.8689   17.2256 C   0  0  0  0  0  0  0  0  0  0  0  0
  -50.1250   -9.6559   18.9316 C   0  0  0  0  0  0  0  0  0  0  0  0
  -45.5330   -9.3989   18.8986 C   0  0  0  0  0  0  0  0  0  0  0  0
  -50.8870   -4.1139   16.0796 C   0  0  0  0  0  0  0  0  0  0  0  0
  -51.5740   -5.9679   17.4046 C   0  0  0  0  0  0  0  0  0  0  0  0
  -50.6880  -10.0739   17.7456 C   0  0  0  0  0  0  0  0  0  0  0  0
  -50.9350   -9.1519   19.9266 C   0  0  0  0  0  0  0  0  0  0  0  0
  -44.1890   -8.9619   19.4296 C   0  0  0  0  0  0  0  0  0  0  0  0
  -51.8130   -4.4559   15.1196 C   0  0  0  0  0  0  0  0  0  0  0  0
  -52.5010   -6.3119   16.4456 C   0  0  0  0  0  0  0  0  0  0  0  0
  -52.6200   -5.5549   15.3026 C   0  0  0  0  0  0  0  0  0  0  0  0
  -52.0490   -9.9869   17.5546 C   0  0  0  0  0  0  0  0  0  0  0  0
  -52.2950   -9.0649   19.7376 C   0  0  0  0  0  0  0  0  0  0  0  0
  -52.8520   -9.4829   18.5506 C   0  0  0  0  0  0  0  0  0  0  0  0
  -42.5250   -9.9189   20.8246 C   0  0  0  0  0  0  0  0  0  0  0  0
  -41.8040  -10.8679   20.1056 C   0  0  0  0  0  0  0  0  0  0  0  0
  -41.8750   -9.1769   21.8026 C   0  0  0  0  0  0  0  0  0  0  0  0
  -40.4620  -11.0409   20.3526 C   0  0  0  0  0  0  0  0  0  0  0  0
  -40.5330   -9.3649   22.0376 C   0  0  0  0  0  0  0  0  0  0  0  0
  -42.3910  -11.7679   19.0276 C   0  0  0  0  0  0  0  0  0  0  0  0
  -42.5930   -8.1319   22.6416 C   0  0  0  0  0  0  0  0  0  0  0  0
  -39.8240  -10.2929   21.3136 C   0  0  0  0  0  0  0  0  0  0  0  0
  -47.7140   -4.5319   18.7206 H   0  0  0  0  0  0  0  0  0  0  0  0
  -46.5940   -3.1049   14.7006 H   0  0  0  0  0  0  0  0  0  0  0  0
  -49.5030   -7.3679   18.5116 H   0  0  0  0  0  0  0  0  0  0  0  0
  -47.7060   -8.8669   17.5206 H   0  0  0  0  0  0  0  0  0  0  0  0
  -48.8060   -7.3629   20.6686 H   0  0  0  0  0  0  0  0  0  0  0  0
  -48.3820   -4.2449   15.9506 H   0  0  0  0  0  0  0  0  0  0  0  0
  -46.3110   -7.7619   19.5996 H   0  0  0  0  0  0  0  0  0  0  0  0
  -50.2710   -2.1319   12.5596 H   0  0  0  0  0  0  0  0  0  0  0  0
  -46.9840   -6.3959   17.5406 H   0  0  0  0  0  0  0  0  0  0  0  0
  -48.4470   -6.4799   16.7496 H   0  0  0  0  0  0  0  0  0  0  0  0
  -45.7710   -0.9589   16.3006 H   0  0  0  0  0  0  0  0  0  0  0  0
  -49.8190   -3.5239   18.4706 H   0  0  0  0  0  0  0  0  0  0  0  0
  -49.9400   -5.0869   19.0696 H   0  0  0  0  0  0  0  0  0  0  0  0
  -48.2560   -0.3929   16.2846 H   0  0  0  0  0  0  0  0  0  0  0  0
  -49.4590   -1.4979   16.4486 H   0  0  0  0  0  0  0  0  0  0  0  0
  -49.3540    0.5491   14.4066 H   0  0  0  0  0  0  0  0  0  0  0  0
  -50.4170    0.5151   15.6206 H   0  0  0  0  0  0  0  0  0  0  0  0
  -48.4430   -9.7339   20.1286 H   0  0  0  0  0  0  0  0  0  0  0  0
  -48.3310  -10.6029   18.7086 H   0  0  0  0  0  0  0  0  0  0  0  0
  -45.4240   -0.0699   13.7256 H   0  0  0  0  0  0  0  0  0  0  0  0
  -47.0190   -0.3729   13.9226 H   0  0  0  0  0  0  0  0  0  0  0  0
  -46.2690    0.6881   14.9036 H   0  0  0  0  0  0  0  0  0  0  0  0
  -44.1220   -1.3699   14.1376 H   0  0  0  0  0  0  0  0  0  0  0  0
  -43.7940   -1.7829   15.6856 H   0  0  0  0  0  0  0  0  0  0  0  0
  -44.5450   -2.8439   14.7066 H   0  0  0  0  0  0  0  0  0  0  0  0
  -51.3290   -1.5429   14.7946 H   0  0  0  0  0  0  0  0  0  0  0  0
  -51.3640   -0.4279   13.5986 H   0  0  0  0  0  0  0  0  0  0  0  0
  -50.3010   -3.3159   15.9436 H   0  0  0  0  0  0  0  0  0  0  0  0
  -51.4890   -6.5199   18.2336 H   0  0  0  0  0  0  0  0  0  0  0  0
  -50.1060  -10.4409   17.0206 H   0  0  0  0  0  0  0  0  0  0  0  0
  -50.5320   -8.8479   20.7896 H   0  0  0  0  0  0  0  0  0  0  0  0
  -43.4940   -9.1009   18.7236 H   0  0  0  0  0  0  0  0  0  0  0  0
  -44.2430   -7.9939   19.6756 H   0  0  0  0  0  0  0  0  0  0  0  0
  -51.8990   -3.9049   14.2896 H   0  0  0  0  0  0  0  0  0  0  0  0
  -53.0860   -7.1109   16.5796 H   0  0  0  0  0  0  0  0  0  0  0  0
  -53.2930   -5.8039   14.6056 H   0  0  0  0  0  0  0  0  0  0  0  0
  -52.4520  -10.2909   16.6916 H   0  0  0  0  0  0  0  0  0  0  0  0
  -52.8790   -8.6989   20.4626 H   0  0  0  0  0  0  0  0  0  0  0  0
  -53.8410   -9.4199   18.4126 H   0  0  0  0  0  0  0  0  0  0  0  0
  -39.9460  -11.7169   19.8276 H   0  0  0  0  0  0  0  0  0  0  0  0
  -40.0710   -8.8229   22.7386 H   0  0  0  0  0  0  0  0  0  0  0  0
  -41.6690  -12.3579   18.6676 H   0  0  0  0  0  0  0  0  0  0  0  0
  -43.1210  -12.3289   19.4176 H   0  0  0  0  0  0  0  0  0  0  0  0
  -42.7690  -11.2079   18.2906 H   0  0  0  0  0  0  0  0  0  0  0  0
  -41.9390   -7.7169   23.2746 H   0  0  0  0  0  0  0  0  0  0  0  0
  -42.9790   -7.4269   22.0466 H   0  0  0  0  0  0  0  0  0  0  0  0
  -43.3330   -8.5649   23.1566 H   0  0  0  0  0  0  0  0  0  0  0  0
  -38.8480  -10.4249   21.4856 H   0  0  0  0  0  0  0  0  0  0  0  0
  2 17  2  0
  3 21  2  0
  4 27  2  0
  5 32  1  0
  5 39  1  0
  6 11  1  0
  6 18  1  0
  6 21  1  0
  7 17  1  0
  8 27  1  0
  9 21  1  0
  9 24  1  0
 10  7  1  0
 10 12  1  0
 10 16  1  0
 11 14  1  0
 11 17  1  0
 12 13  1  0
 13  1  1  0
 13 15  1  0
 14 22  1  0
 14 23  1  0
 15  8  1  0
 15 20  1  0
 16 25  1  0
 18 19  1  0
 19 24  1  0
 20 26  1  0
 25 28  2  0
 25 29  1  0
 26 30  2  0
 26 31  1  0
 27 32  1  0
 28 33  1  0
 29 34  2  0
 30 36  1  0
 31 37  2  0
 33 35  2  0
 34 35  1  0
 36 38  2  0
 37 38  1  0
 39 40  2  0
 39 41  1  0
 40 42  1  0
 40 44  1  0
 41 43  2  0
 41 45  1  0
 42 46  2  0
 43 46  1  0
  1 51  1  0
  7 52  1  0
  8 53  1  0
  9 54  1  0
 10 47  1  0
 11 48  1  0
 12 55  1  0
 12 56  1  0
 13 49  1  0
 14 57  1  0
 15 50  1  0
 16 58  1  0
 16 59  1  0
 18 60  1  0
 18 61  1  0
 19 62  1  0
 19 63  1  0
 20 64  1  0
 20 65  1  0
 22 66  1  0
 22 67  1  0
 22 68  1  0
 23 69  1  0
 23 70  1  0
 23 71  1  0
 24 72  1  0
 24 73  1  0
 28 74  1  0
 29 75  1  0
 30 76  1  0
 31 77  1  0
 32 78  1  0
 32 79  1  0
 33 80  1  0
 34 81  1  0
 35 82  1  0
 36 83  1  0
 37 84  1  0
 38 85  1  0
 42 86  1  0
 43 87  1  0
 44 88  1  0
 44 89  1  0
 44 90  1  0
 45 91  1  0
 45 92  1  0
 45 93  1  0
 46 94  1  0
M  END
>  <BioMolTech Lead Finder dG>
-6.666

>  <BioMolTech Lead Finder VSscore>
-8.103

>  <BioMolTech Lead Finder Rank score>
-7.287

>  <BioMolTech Lead Finder LE>
-0.145

>  <BioMolTech Lead Finder Structure Name>
/var/folders/xd/y7jw_xv579q2qqq7kks92xd80000gn/T/LeadFinder_61397_1/Ligand_1.sdf

>  <BioMolTech Lead Finder SDF id>
0

>  <BioMolTech Lead Finder Pose rank>
0

>  <BioMolTech Lead Finder version>
2001 1, 19 January 2019

>  <PUBCHEM_COMPOUND_CID>
92727

>  <PUBCHEM_COMPOUND_CANONICALIZED>
1

>  <PUBCHEM_CACTVS_COMPLEXITY>
940

>  <PUBCHEM_CACTVS_HBOND_ACCEPTOR>
5

>  <PUBCHEM_CACTVS_HBOND_DONOR>
4

>  <PUBCHEM_CACTVS_ROTATABLE_BOND>
15

>  <PUBCHEM_CACTVS_SUBSKEYS>
AAADcfB/uAAAAAAAAAAAAAAAAAAAAAAAAAA8YMEAAAAAAAABUAAAHgAQCAAADTzhmAYzBoPABgCIAiFSEAICCAAgIAAIiIHMCIiOdjKE8T+XeCCu1hOYqAeQwPAOAAACAAAIAAAAAAQAABAAAAAAAAAAAA==

>  <PUBCHEM_IUPAC_OPENEYE_NAME>
(2S)-N-[(1S,3S,4S)-1-benzyl-4-[[2-(2,6-dimethylphenoxy)acetyl]amino]-3-hydroxy-5-phenyl-pentyl]-3-methyl-2-(2-oxohexahydropyrimidin-1-yl)butanamide

>  <PUBCHEM_IUPAC_CAS_NAME>
(2S)-N-[(2S,4S,5S)-5-[[2-(2,6-dimethylphenoxy)-1-oxoethyl]amino]-4-hydroxy-1,6-diphenylhexan-2-yl]-3-methyl-2-(2-oxo-1,3-diazinan-1-yl)butanamide

>  <PUBCHEM_IUPAC_NAME_MARKUP>
(2<I>S</I>)-<I>N</I>-[(2<I>S</I>,4<I>S</I>,5<I>S</I>)-5-[[2-(2,6-dimethylphenoxy)acetyl]amino]-4-hydroxy-1,6-diphenylhexan-2-yl]-3-methyl-2-(2-oxo-1,3-diazinan-1-yl)butanamide

>  <PUBCHEM_IUPAC_NAME>
(2S)-N-[(2S,4S,5S)-5-[[2-(2,6-dimethylphenoxy)acetyl]amino]-4-hydroxy-1,6-diphenylhexan-2-yl]-3-methyl-2-(2-oxo-1,3-diazinan-1-yl)butanamide

>  <PUBCHEM_IUPAC_SYSTEMATIC_NAME>
(2S)-N-[(2S,4S,5S)-5-[2-(2,6-dimethylphenoxy)ethanoylamino]-4-oxidanyl-1,6-diphenyl-hexan-2-yl]-3-methyl-2-(2-oxidanylidene-1,3-diazinan-1-yl)butanamide

>  <PUBCHEM_IUPAC_TRADITIONAL_NAME>
(2S)-N-[(1S,3S,4S)-1-benzyl-4-[[2-(2,6-dimethylphenoxy)acetyl]amino]-3-hydroxy-5-phenyl-pentyl]-2-(2-ketohexahydropyrimidin-1-yl)-3-methyl-butyramide

>  <PUBCHEM_IUPAC_INCHI>
InChI=1S/C37H48N4O5/c1-25(2)34(41-20-12-19-38-37(41)45)36(44)39-30(21-28-15-7-5-8-16-28)23-32(42)31(22-29-17-9-6-10-18-29)40-33(43)24-46-35-26(3)13-11-14-27(35)4/h5-11,13-18,25,30-32,34,42H,12,19-24H2

>  <PUBCHEM_IUPAC_INCHIKEY>
KJHKTHWMRKYKJE-SUGCFTRWSA-N

>  <PUBCHEM_XLOGP3_AA>
5.9

>  <PUBCHEM_EXACT_MASS>
628.362471

>  <PUBCHEM_MOLECULAR_FORMULA>
C37H48N4O5

>  <PUBCHEM_MOLECULAR_WEIGHT>
628.8

>  <PUBCHEM_OPENEYE_CAN_SMILES>
CC1=C(C(=CC=C1)C)OCC(=O)NC(CC2=CC=CC=C2)C(CC(CC3=CC=CC=C3)NC(=O)C(C(C)C)N4CCCNC4=O)O

>  <PUBCHEM_OPENEYE_ISO_SMILES>
CC1=C(C(=CC=C1)C)OCC(=O)N[C@@H](CC2=CC=CC=C2)[C@H](C[C@H](CC3=CC=CC=C3)NC(=O)[C@H](C(C)C)N4CCCNC4=O)O

>  <PUBCHEM_CACTVS_TPSA>
120

>  <PUBCHEM_MONOISOTOPIC_WEIGHT>
628.362471

>  <PUBCHEM_TOTAL_CHARGE>
0

>  <PUBCHEM_HEAVY_ATOM_COUNT>
46

>  <PUBCHEM_ATOM_DEF_STEREO_COUNT>
4

>  <PUBCHEM_ATOM_UDEF_STEREO_COUNT>
0

>  <PUBCHEM_BOND_DEF_STEREO_COUNT>
0

>  <PUBCHEM_BOND_UDEF_STEREO_COUNT>
0

>  <PUBCHEM_ISOTOPIC_ATOM_COUNT>
0

>  <PUBCHEM_COMPONENT_COUNT>
1

>  <PUBCHEM_CACTVS_TAUTO_COUNT>
-1

>  <PUBCHEM_COORDINATE_TYPE>
1
5
255

>  <PUBCHEM_BONDANNOTATIONS>
13  1  6
11  17  5
25  28  8
25  29  8
26  30  8
26  31  8
28  33  8
29  34  8
30  36  8
31  37  8
33  35  8
34  35  8
36  38  8
37  38  8
39  40  8
39  41  8
40  42  8
41  43  8
42  46  8
43  46  8
10  7  6
15  8  5

>  <LF dG>
-6.666

>  <LF VSscore>
-8.103

>  <LF Rank Score>
-7.287

>  <LF LE>
-0.145

>  <Preferred Pose_cresset>
true

>  <Favorite_cresset>
false

>  <Protein_cresset>
6M2N_Monomer_P

>  <MW_cresset>
628.8

>  <#Atoms_cresset>
46

>  <SlogP_cresset>
4.7

>  <TPSA_cresset>
120

>  <Flexibility_cresset>
16.1

>  <#RB_cresset>
16

>  <Rof5_cresset>
1

>  <Filename_cresset>
Lopinavir.sdf

>  <Confs_cresset>
0

>  <Poses_cresset>
10

>  <_cresset_fieldpoints>
    -5     -45.049339      -1.809262      18.400303    -10.2994
    -5     -47.442360      -5.371575      20.849781     -4.9303
    -5     -47.961430      -3.879438      11.452950    -11.4407
    -5     -46.741081      -3.895884      12.218707    -11.3922
    -5     -45.156631     -12.076633      17.883385    -11.4140
    -5     -49.938183      -6.979180      14.711086     -4.4796
    -5     -53.652828      -3.680555      17.707756     -3.3059
    -5     -45.812492      -2.821134      19.386814     -9.4693
    -5     -51.565525     -12.344184      19.708923     -4.2329
    -5     -42.474236     -12.154175      22.796295     -6.3984
    -5     -40.210037      -8.185270      19.080057     -3.9618
    -5     -45.931702      -5.399625      15.603287     -3.6822
    -6     -49.302879      -8.000715      22.212225      7.8744
    -6     -45.315056      -6.725651      21.163414      4.1087
    -6     -52.415565      -2.448487      12.234835      5.7629
    -6     -54.756927      -8.692261      16.213871      4.0292
    -6     -51.809235      -0.734881      17.154593      4.4986
    -6     -52.930763       0.642016      15.290760      4.6565
    -6     -55.256142      -8.204251      20.067533      3.3863
    -6     -48.920471      -8.917950      15.526468      1.5651
    -6     -37.414879     -11.989252      20.202690      1.5163
    -6     -39.116516     -13.116158      18.371601      1.3612
    -6     -39.698303      -7.231204      24.251476      2.0625
    -6     -37.836601      -8.704159      23.432896      1.7647
    -7     -48.624176      -4.966316      21.333366     -2.2078
    -7     -48.190453      -1.527077      18.883484     -2.8792
    -7     -45.551086      -5.361605      15.594920     -2.7321
    -7     -46.707813       1.130472      17.537895     -1.8402
    -7     -48.676186      -5.341520      13.883512     -3.1861
    -7     -45.999290      -2.422477      12.086298     -2.5389
    -7     -47.173462     -11.167379      16.481380     -2.1668
    -7     -45.611435     -11.867109      20.398247     -2.7289
    -7     -44.255257     -10.339574      16.366493     -1.9081
    -7     -43.728840       1.086372      16.248749     -1.5009
    -7     -47.845768       2.199421      16.260063     -1.7876
    -7     -53.592773      -3.115329      17.864014     -1.9357
    -7     -48.538174       0.013305      11.892237     -2.4456
    -7     -51.567467     -12.564460      19.991798     -1.8367
    -7     -45.326920      -7.951803      16.375610     -2.3939
    -7     -41.064816      -7.774921      18.782322     -2.4798
    -7     -45.196091      -5.547061      19.199684     -2.6442
    -7     -49.807865      -8.027121      15.424719     -3.8140
    -7     -54.341110      -8.885585      15.382792     -1.8095
    -7     -51.753349      -1.421579      17.583641     -2.7522
    -7     -52.849648      -2.696775      12.421412     -1.7386
    -7     -50.739204      -6.190666      21.040745     -3.0614
    -7     -46.389389      -9.013945      21.802013     -3.0753
    -7     -42.169304     -12.313301      23.206295     -1.9951
    -7     -37.487068      -8.955138      23.411152     -1.0013
    -7     -37.434467      -8.241752      22.624096     -0.9991
    -7     -37.348373     -12.271564      20.038960     -1.0059
    -8     -49.094822      -8.915487      18.735870      5.8848
    -8     -50.044479      -0.641645      15.229303      5.0046
    -8     -45.655037      -1.372967      14.851067      5.8880
    -8     -41.142387     -10.114923      21.074751      7.0732
    -8     -49.146961      -5.624817      17.938465      5.6668
    -8     -44.419003      -8.611856      18.741341      2.8701
    -8     -48.190884      -7.450764      17.801067      5.0401
    -8     -51.682293      -5.214920      16.267616      7.2311
    -8     -50.746162      -4.920822      17.213898      5.7915
    -8     -51.479950      -9.549938      18.735367      7.2616
    -8     -41.667583     -10.985829      20.016033      5.4899

$$$$
Untitled
  xed2sdf_05210316543D
 
 94 97  0  0  1  0  0  0  0  0999 V2000
  -50.1304   -3.8828   14.2167 O   0  0  0  0  0  0  0  0  0  0  0  0
  -49.5394    0.2032   16.7047 O   0  0  0  0  0  0  0  0  0  0  0  0
  -53.0374    3.6722   16.7787 O   0  0  0  0  0  0  0  0  0  0  0  0
  -48.3754   -3.5388   17.9717 O   0  0  0  0  0  0  0  0  0  0  0  0
  -47.9734   -6.1638   18.5377 O   0  0  0  0  0  0  0  0  0  0  0  0
  -52.6604    1.5892   17.5587 N   0  0  0  0  0  0  0  0  0  0  0  0
  -51.3554    0.6632   15.4137 N   0  0  0  0  0  0  0  0  0  0  0  0
  -48.2184   -3.9128   15.7287 N   0  0  0  0  0  0  0  0  0  0  0  0
  -54.8314    2.3872   17.1497 N   0  0  0  0  0  0  0  0  0  0  0  0
  -50.9534   -0.2618   14.3447 C   0  0  0  0  0  0  0  0  0  0  0  0
  -51.1964    1.7802   17.4947 C   0  0  0  0  0  0  0  0  0  0  0  0
  -50.8134   -1.6458   15.0127 C   0  0  0  0  0  0  0  0  0  0  0  0
  -49.6954   -2.5278   14.4167 C   0  0  0  0  0  0  0  0  0  0  0  0
  -50.5434    1.6582   18.8927 C   0  0  0  0  0  0  0  0  0  0  0  0
  -48.4824   -2.5118   15.3687 C   0  0  0  0  0  0  0  0  0  0  0  0
  -49.6404    0.2772   13.7387 C   0  0  0  0  0  0  0  0  0  0  0  0
  -50.5894    0.8002   16.5077 C   0  0  0  0  0  0  0  0  0  0  0  0
  -53.1674    0.2902   18.0357 C   0  0  0  0  0  0  0  0  0  0  0  0
  -54.5754    0.4312   18.6217 C   0  0  0  0  0  0  0  0  0  0  0  0
  -47.2624   -1.8688   14.6757 C   0  0  0  0  0  0  0  0  0  0  0  0
  -53.4914    2.5842   17.1497 C   0  0  0  0  0  0  0  0  0  0  0  0
  -51.3514    2.4172   19.9597 C   0  0  0  0  0  0  0  0  0  0  0  0
  -49.1224    2.2462   18.8857 C   0  0  0  0  0  0  0  0  0  0  0  0
  -55.4344    1.1062   17.5487 C   0  0  0  0  0  0  0  0  0  0  0  0
  -49.7724    1.4852   12.8247 C   0  0  0  0  0  0  0  0  0  0  0  0
  -46.1384   -1.4598   15.6147 C   0  0  0  0  0  0  0  0  0  0  0  0
  -48.2644   -4.2918   17.0147 C   0  0  0  0  0  0  0  0  0  0  0  0
  -50.9294    2.2332   12.8157 C   0  0  0  0  0  0  0  0  0  0  0  0
  -48.7244    1.8472   12.0077 C   0  0  0  0  0  0  0  0  0  0  0  0
  -46.3614   -0.5228   16.5997 C   0  0  0  0  0  0  0  0  0  0  0  0
  -44.8884   -2.0258   15.4867 C   0  0  0  0  0  0  0  0  0  0  0  0
  -48.2054   -5.7928   17.1627 C   0  0  0  0  0  0  0  0  0  0  0  0
  -51.0394    3.3322   11.9947 C   0  0  0  0  0  0  0  0  0  0  0  0
  -48.8324    2.9472   11.1857 C   0  0  0  0  0  0  0  0  0  0  0  0
  -49.9904    3.6892   11.1797 C   0  0  0  0  0  0  0  0  0  0  0  0
  -45.3434   -0.1538   17.4497 C   0  0  0  0  0  0  0  0  0  0  0  0
  -43.8694   -1.6588   16.3357 C   0  0  0  0  0  0  0  0  0  0  0  0
  -44.0964   -0.7218   17.3177 C   0  0  0  0  0  0  0  0  0  0  0  0
  -48.2344   -7.4328   18.8787 C   0  0  0  0  0  0  0  0  0  0  0  0
  -49.4904   -7.8188   19.3357 C   0  0  0  0  0  0  0  0  0  0  0  0
  -47.2274   -8.3858   18.7907 C   0  0  0  0  0  0  0  0  0  0  0  0
  -49.7254   -9.1318   19.6697 C   0  0  0  0  0  0  0  0  0  0  0  0
  -47.4794   -9.6938   19.1297 C   0  0  0  0  0  0  0  0  0  0  0  0
  -50.6754   -6.8798   19.5087 C   0  0  0  0  0  0  0  0  0  0  0  0
  -45.8234   -8.0438   18.3147 C   0  0  0  0  0  0  0  0  0  0  0  0
  -48.7264  -10.0708   19.5667 C   0  0  0  0  0  0  0  0  0  0  0  0
  -51.6084   -0.3418   13.5927 H   0  0  0  0  0  0  0  0  0  0  0  0
  -51.0134    2.7082   17.1727 H   0  0  0  0  0  0  0  0  0  0  0  0
  -49.4464   -2.1548   13.5227 H   0  0  0  0  0  0  0  0  0  0  0  0
  -48.6644   -1.9658   16.1867 H   0  0  0  0  0  0  0  0  0  0  0  0
  -49.4054   -4.4458   13.8047 H   0  0  0  0  0  0  0  0  0  0  0  0
  -52.1054    1.1192   15.3357 H   0  0  0  0  0  0  0  0  0  0  0  0
  -48.0764   -4.5038   15.0917 H   0  0  0  0  0  0  0  0  0  0  0  0
  -55.3564    3.0412   16.8827 H   0  0  0  0  0  0  0  0  0  0  0  0
  -51.6824   -2.1308   14.9177 H   0  0  0  0  0  0  0  0  0  0  0  0
  -50.5674   -1.4788   15.9677 H   0  0  0  0  0  0  0  0  0  0  0  0
  -50.5214    0.6822   19.1117 H   0  0  0  0  0  0  0  0  0  0  0  0
  -49.2184   -0.4618   13.2137 H   0  0  0  0  0  0  0  0  0  0  0  0
  -49.0944    0.5892   14.5167 H   0  0  0  0  0  0  0  0  0  0  0  0
  -52.5514   -0.0648   18.7397 H   0  0  0  0  0  0  0  0  0  0  0  0
  -53.2084   -0.3398   17.2597 H   0  0  0  0  0  0  0  0  0  0  0  0
  -54.5514    0.9922   19.4497 H   0  0  0  0  0  0  0  0  0  0  0  0
  -54.9514   -0.4608   18.8727 H   0  0  0  0  0  0  0  0  0  0  0  0
  -47.5734   -1.0548   14.1857 H   0  0  0  0  0  0  0  0  0  0  0  0
  -46.8814   -2.5688   14.0707 H   0  0  0  0  0  0  0  0  0  0  0  0
  -50.7614    3.1032   20.3877 H   0  0  0  0  0  0  0  0  0  0  0  0
  -52.1364    2.8662   19.5337 H   0  0  0  0  0  0  0  0  0  0  0  0
  -51.6794    1.7752   20.6527 H   0  0  0  0  0  0  0  0  0  0  0  0
  -49.0664    2.9732   19.5707 H   0  0  0  0  0  0  0  0  0  0  0  0
  -48.4594    1.5292   19.1007 H   0  0  0  0  0  0  0  0  0  0  0  0
  -48.9154    2.6182   17.9807 H   0  0  0  0  0  0  0  0  0  0  0  0
  -55.5014    0.5072   16.7507 H   0  0  0  0  0  0  0  0  0  0  0  0
  -56.3474    1.2762   17.9197 H   0  0  0  0  0  0  0  0  0  0  0  0
  -51.6934    1.9762   13.4087 H   0  0  0  0  0  0  0  0  0  0  0  0
  -47.8814    1.3092   12.0107 H   0  0  0  0  0  0  0  0  0  0  0  0
  -47.2664   -0.1098   16.6987 H   0  0  0  0  0  0  0  0  0  0  0  0
  -44.7204   -2.7068   14.7737 H   0  0  0  0  0  0  0  0  0  0  0  0
  -49.0704   -6.1898   16.8567 H   0  0  0  0  0  0  0  0  0  0  0  0
  -47.4504   -6.1398   16.6057 H   0  0  0  0  0  0  0  0  0  0  0  0
  -51.8824    3.8712   11.9907 H   0  0  0  0  0  0  0  0  0  0  0  0
  -48.0684    3.2052   10.5937 H   0  0  0  0  0  0  0  0  0  0  0  0
  -50.0694    4.4882   10.5827 H   0  0  0  0  0  0  0  0  0  0  0  0
  -45.5094    0.5272   18.1627 H   0  0  0  0  0  0  0  0  0  0  0  0
  -42.9644   -2.0718   16.2387 H   0  0  0  0  0  0  0  0  0  0  0  0
  -43.3564   -0.4538   17.9347 H   0  0  0  0  0  0  0  0  0  0  0  0
  -50.6314   -9.4068   19.9897 H   0  0  0  0  0  0  0  0  0  0  0  0
  -46.7504  -10.3748   19.0587 H   0  0  0  0  0  0  0  0  0  0  0  0
  -51.4574   -7.4008   19.8507 H   0  0  0  0  0  0  0  0  0  0  0  0
  -50.4414   -6.1568   20.1597 H   0  0  0  0  0  0  0  0  0  0  0  0
  -50.9054   -6.4628   18.6297 H   0  0  0  0  0  0  0  0  0  0  0  0
  -45.2664   -8.8728   18.3227 H   0  0  0  0  0  0  0  0  0  0  0  0
  -45.8624   -7.6728   17.3867 H   0  0  0  0  0  0  0  0  0  0  0  0
  -45.4204   -7.3588   18.9217 H   0  0  0  0  0  0  0  0  0  0  0  0
  -48.9064  -11.0238   19.8097 H   0  0  0  0  0  0  0  0  0  0  0  0
  2 17  2  0
  3 21  2  0
  4 27  2  0
  5 32  1  0
  5 39  1  0
  6 11  1  0
  6 18  1  0
  6 21  1  0
  7 17  1  0
  8 27  1  0
  9 21  1  0
  9 24  1  0
 10  7  1  0
 10 12  1  0
 10 16  1  0
 11 14  1  0
 11 17  1  0
 12 13  1  0
 13  1  1  0
 13 15  1  0
 14 22  1  0
 14 23  1  0
 15  8  1  0
 15 20  1  0
 16 25  1  0
 18 19  1  0
 19 24  1  0
 20 26  1  0
 25 28  2  0
 25 29  1  0
 26 30  2  0
 26 31  1  0
 27 32  1  0
 28 33  1  0
 29 34  2  0
 30 36  1  0
 31 37  2  0
 33 35  2  0
 34 35  1  0
 36 38  2  0
 37 38  1  0
 39 40  2  0
 39 41  1  0
 40 42  1  0
 40 44  1  0
 41 43  2  0
 41 45  1  0
 42 46  2  0
 43 46  1  0
  1 51  1  0
  7 52  1  0
  8 53  1  0
  9 54  1  0
 10 47  1  0
 11 48  1  0
 12 55  1  0
 12 56  1  0
 13 49  1  0
 14 57  1  0
 15 50  1  0
 16 58  1  0
 16 59  1  0
 18 60  1  0
 18 61  1  0
 19 62  1  0
 19 63  1  0
 20 64  1  0
 20 65  1  0
 22 66  1  0
 22 67  1  0
 22 68  1  0
 23 69  1  0
 23 70  1  0
 23 71  1  0
 24 72  1  0
 24 73  1  0
 28 74  1  0
 29 75  1  0
 30 76  1  0
 31 77  1  0
 32 78  1  0
 32 79  1  0
 33 80  1  0
 34 81  1  0
 35 82  1  0
 36 83  1  0
 37 84  1  0
 38 85  1  0
 42 86  1  0
 43 87  1  0
 44 88  1  0
 44 89  1  0
 44 90  1  0
 45 91  1  0
 45 92  1  0
 45 93  1  0
 46 94  1  0
M  END
>  <BioMolTech Lead Finder dG>
-5.197

>  <BioMolTech Lead Finder VSscore>
-8.257

>  <BioMolTech Lead Finder Rank score>
-8.804

>  <BioMolTech Lead Finder LE>
-0.113

>  <BioMolTech Lead Finder Structure Name>
/var/folders/xd/y7jw_xv579q2qqq7kks92xd80000gn/T/LeadFinder_58626_1/Ligand_1.sdf

>  <BioMolTech Lead Finder SDF id>
0

>  <BioMolTech Lead Finder Pose rank>
0

>  <BioMolTech Lead Finder version>
2001 1, 19 January 2019

>  <PUBCHEM_COMPOUND_CID>
92727

>  <PUBCHEM_COMPOUND_CANONICALIZED>
1

>  <PUBCHEM_CACTVS_COMPLEXITY>
940

>  <PUBCHEM_CACTVS_HBOND_ACCEPTOR>
5

>  <PUBCHEM_CACTVS_HBOND_DONOR>
4

>  <PUBCHEM_CACTVS_ROTATABLE_BOND>
15

>  <PUBCHEM_CACTVS_SUBSKEYS>
AAADcfB/uAAAAAAAAAAAAAAAAAAAAAAAAAA8YMEAAAAAAAABUAAAHgAQCAAADTzhmAYzBoPABgCIAiFSEAICCAAgIAAIiIHMCIiOdjKE8T+XeCCu1hOYqAeQwPAOAAACAAAIAAAAAAQAABAAAAAAAAAAAA==

>  <PUBCHEM_IUPAC_OPENEYE_NAME>
(2S)-N-[(1S,3S,4S)-1-benzyl-4-[[2-(2,6-dimethylphenoxy)acetyl]amino]-3-hydroxy-5-phenyl-pentyl]-3-methyl-2-(2-oxohexahydropyrimidin-1-yl)butanamide

>  <PUBCHEM_IUPAC_CAS_NAME>
(2S)-N-[(2S,4S,5S)-5-[[2-(2,6-dimethylphenoxy)-1-oxoethyl]amino]-4-hydroxy-1,6-diphenylhexan-2-yl]-3-methyl-2-(2-oxo-1,3-diazinan-1-yl)butanamide

>  <PUBCHEM_IUPAC_NAME_MARKUP>
(2<I>S</I>)-<I>N</I>-[(2<I>S</I>,4<I>S</I>,5<I>S</I>)-5-[[2-(2,6-dimethylphenoxy)acetyl]amino]-4-hydroxy-1,6-diphenylhexan-2-yl]-3-methyl-2-(2-oxo-1,3-diazinan-1-yl)butanamide

>  <PUBCHEM_IUPAC_NAME>
(2S)-N-[(2S,4S,5S)-5-[[2-(2,6-dimethylphenoxy)acetyl]amino]-4-hydroxy-1,6-diphenylhexan-2-yl]-3-methyl-2-(2-oxo-1,3-diazinan-1-yl)butanamide

>  <PUBCHEM_IUPAC_SYSTEMATIC_NAME>
(2S)-N-[(2S,4S,5S)-5-[2-(2,6-dimethylphenoxy)ethanoylamino]-4-oxidanyl-1,6-diphenyl-hexan-2-yl]-3-methyl-2-(2-oxidanylidene-1,3-diazinan-1-yl)butanamide

>  <PUBCHEM_IUPAC_TRADITIONAL_NAME>
(2S)-N-[(1S,3S,4S)-1-benzyl-4-[[2-(2,6-dimethylphenoxy)acetyl]amino]-3-hydroxy-5-phenyl-pentyl]-2-(2-ketohexahydropyrimidin-1-yl)-3-methyl-butyramide

>  <PUBCHEM_IUPAC_INCHI>
InChI=1S/C37H48N4O5/c1-25(2)34(41-20-12-19-38-37(41)45)36(44)39-30(21-28-15-7-5-8-16-28)23-32(42)31(22-29-17-9-6-10-18-29)40-33(43)24-46-35-26(3)13-11-14-27(35)4/h5-11,13-18,25,30-32,34,42H,12,19-24H2

>  <PUBCHEM_IUPAC_INCHIKEY>
KJHKTHWMRKYKJE-SUGCFTRWSA-N

>  <PUBCHEM_XLOGP3_AA>
5.9

>  <PUBCHEM_EXACT_MASS>
628.362471

>  <PUBCHEM_MOLECULAR_FORMULA>
C37H48N4O5

>  <PUBCHEM_MOLECULAR_WEIGHT>
628.8

>  <PUBCHEM_OPENEYE_CAN_SMILES>
CC1=C(C(=CC=C1)C)OCC(=O)NC(CC2=CC=CC=C2)C(CC(CC3=CC=CC=C3)NC(=O)C(C(C)C)N4CCCNC4=O)O

>  <PUBCHEM_OPENEYE_ISO_SMILES>
CC1=C(C(=CC=C1)C)OCC(=O)N[C@@H](CC2=CC=CC=C2)[C@H](C[C@H](CC3=CC=CC=C3)NC(=O)[C@H](C(C)C)N4CCCNC4=O)O

>  <PUBCHEM_CACTVS_TPSA>
120

>  <PUBCHEM_MONOISOTOPIC_WEIGHT>
628.362471

>  <PUBCHEM_TOTAL_CHARGE>
0

>  <PUBCHEM_HEAVY_ATOM_COUNT>
46

>  <PUBCHEM_ATOM_DEF_STEREO_COUNT>
4

>  <PUBCHEM_ATOM_UDEF_STEREO_COUNT>
0

>  <PUBCHEM_BOND_DEF_STEREO_COUNT>
0

>  <PUBCHEM_BOND_UDEF_STEREO_COUNT>
0

>  <PUBCHEM_ISOTOPIC_ATOM_COUNT>
0

>  <PUBCHEM_COMPONENT_COUNT>
1

>  <PUBCHEM_CACTVS_TAUTO_COUNT>
-1

>  <PUBCHEM_COORDINATE_TYPE>
1
5
255

>  <PUBCHEM_BONDANNOTATIONS>
13  1  6
11  17  5
25  28  8
25  29  8
26  30  8
26  31  8
28  33  8
29  34  8
30  36  8
31  37  8
33  35  8
34  35  8
36  38  8
37  38  8
39  40  8
39  41  8
40  42  8
41  43  8
42  46  8
43  46  8
10  7  6
15  8  5

>  <LF dG>
-5.197

>  <LF VSscore>
-8.257

>  <LF Rank Score>
-8.804

>  <LF LE>
-0.113

>  <Preferred Pose_cresset>
true

>  <Favorite_cresset>
false

>  <Protein_cresset>
6M2N_Monomer_P

>  <MW_cresset>
628.8

>  <#Atoms_cresset>
46

>  <SlogP_cresset>
4.7

>  <TPSA_cresset>
120

>  <Flexibility_cresset>
16.1

>  <#RB_cresset>
16

>  <Rof5_cresset>
1

>  <Filename_cresset>
Lopinavir.sdf

>  <Confs_cresset>
0

>  <Poses_cresset>
10

>  <_cresset_fieldpoints>
    -5     -50.893272      -4.525241      15.824132     -8.2913
    -5     -48.209305      -4.040534      19.624573    -18.6296
    -5     -51.837769       4.925325      16.443119    -12.2097
    -5     -49.480858       3.753402      14.886461     -7.6137
    -5     -44.595474       1.280989      14.890841     -6.0237
    -5     -50.972942       1.077089       9.812063     -3.8849
    -5     -47.974625       2.136371      15.795862     -6.6337
    -5     -48.320694      -1.825902      18.510548    -17.2110
    -5     -49.552967      -9.721308      16.668747     -2.5441
    -6     -47.829735      -4.868468      13.137339     13.0432
    -6     -57.466255       3.073995      16.528248      4.8126
    -6     -53.765141       0.856668      14.050706      5.1649
    -6     -51.952065       5.768779       9.899593      1.3175
    -6     -48.073135       4.886799       8.835735      1.6109
    -6     -51.304893     -11.771303      20.367455      2.0631
    -6     -45.007229     -11.323002      17.964680      2.5676
    -6     -46.718021     -12.704556      19.132214      2.2169
    -6     -57.003609      -1.355420      17.597870      4.5253
    -6     -52.846725      -9.540205      20.136356      2.1408
    -7     -51.163280      -4.406875      16.751371     -3.1281
    -7     -47.708229      -4.251150      12.390929     -2.0554
    -7     -47.662766      -1.394629      11.521255     -2.7285
    -7     -51.469826       5.043064      18.059731     -2.2862
    -7     -51.276768       4.242517      15.280287     -2.7081
    -7     -48.703529      -4.190411      20.217335     -2.4356
    -7     -49.315277       0.275482      21.570826     -1.5584
    -7     -51.773365      -0.813031      20.994301     -1.8818
    -7     -51.007118      -3.741827      17.537743     -3.1234
    -7     -52.642479      -0.514829      21.239185     -1.8774
    -7     -54.596352       3.631548      19.640690     -2.4320
    -7     -54.243019       1.513186      14.434984     -2.9100
    -7     -47.916061       2.281374      15.723932     -3.8704
    -7     -45.601742      -5.118088      15.269651     -2.8646
    -7     -49.188629      -8.824919      16.033302     -2.5040
    -7     -52.285629       6.086287      10.436508     -0.9692
    -7     -48.079887       5.359102       8.918516     -0.9683
    -7     -50.703117      -1.402887      11.215120     -2.5432
    -7     -43.872261       1.218218      20.145721     -0.9938
    -7     -40.847221      -1.542217      17.883419     -0.9689
    -7     -45.704659      -3.922244      18.246181     -3.3389
    -7     -49.082825      -1.284667      18.460360     -4.3954
    -7     -46.929550     -12.977396      19.656525     -1.0014
    -7     -54.075798      -0.286994      14.792603     -3.0026
    -7     -47.548935      -7.850660      22.181587     -1.9939
    -7     -51.426369     -11.857046      20.663162     -1.0058
    -8     -49.990486      -1.086809      14.293520      6.0119
    -8     -45.122070      -1.092130      16.462717      7.1940
    -8     -54.474976       0.330339      18.021992      4.9487
    -8     -48.485664      -8.783167      19.234222      7.0734
    -8     -50.385933       0.918690      13.348541      5.6501
    -8     -49.880112       2.582813      12.005308      7.1949
    -8     -48.694759      -1.725343      14.614964      5.4655
    -8     -50.453411       2.189329      18.921921      5.9249
    -8     -47.096649      -1.440533      15.617657      5.6222
    -8     -48.345535      -5.574729      16.482178      2.8064
    -8     -49.659599      -7.919083      19.398289      5.4803
    -8     -47.174721      -8.543213      18.797182      5.4680

$$$$
W_Wogonoside_D
  xed2sdf_05210316543D
 
 52 55  0  0  1  0  0  0  0  0999 V2000
  -49.5602   -3.6812   17.5696 O   0  0  0  0  0  0  0  0  0  0  0  0
  -49.7122   -1.6522   16.2366 O   0  0  0  0  0  0  0  0  0  0  0  0
  -51.6752   -5.7902   14.5996 O   0  0  0  0  0  0  0  0  0  0  0  0
  -51.4002   -2.9432   14.4326 O   0  0  0  0  0  0  0  0  0  0  0  0
  -51.2892   -6.9562   17.2056 O   0  0  0  0  0  0  0  0  0  0  0  0
  -48.1252   -5.7122   18.6786 O   0  5  0  0  0  0  0  0  0  0  0  0
  -49.9562   -6.1742   19.9616 O   0  0  0  0  0  0  0  0  0  0  0  0
  -45.6492   -0.1482   18.1726 O   0  0  0  0  0  0  0  0  0  0  0  0
  -48.3282   -0.2372   18.1946 O   0  0  0  0  0  0  0  0  0  0  0  0
  -45.6482   -2.8862   14.2196 O   0  0  0  0  0  0  0  0  0  0  0  0
  -43.4922   -2.0182   15.3006 O   0  0  0  0  0  0  0  0  0  0  0  0
  -51.3972   -4.9922   15.7586 C   0  0  0  0  0  0  0  0  0  0  0  0
  -50.6302   -3.7192   15.3616 C   0  0  0  0  0  0  0  0  0  0  0  0
  -50.5672   -5.7912   16.7786 C   0  0  0  0  0  0  0  0  0  0  0  0
  -50.3322   -2.8972   16.6306 C   0  0  0  0  0  0  0  0  0  0  0  0
  -50.2422   -4.8842   17.9826 C   0  0  0  0  0  0  0  0  0  0  0  0
  -49.3742   -5.6482   18.9496 C   0  0  0  0  0  0  0  0  0  0  0  0
  -48.3772   -1.5852   16.2376 C   0  0  0  0  0  0  0  0  0  0  0  0
  -47.6752   -0.8882   17.2126 C   0  0  0  0  0  0  0  0  0  0  0  0
  -47.6842   -2.2602   15.2426 C   0  0  0  0  0  0  0  0  0  0  0  0
  -46.2872   -0.8462   17.1896 C   0  0  0  0  0  0  0  0  0  0  0  0
  -45.6062   -1.5182   16.1766 C   0  0  0  0  0  0  0  0  0  0  0  0
  -46.3162   -2.2282   15.2026 C   0  0  0  0  0  0  0  0  0  0  0  0
  -44.1602   -1.4602   16.1716 C   0  0  0  0  0  0  0  0  0  0  0  0
  -44.2742   -0.1212   18.1666 C   0  0  0  0  0  0  0  0  0  0  0  0
  -43.5202   -0.7402   17.2106 C   0  0  0  0  0  0  0  0  0  0  0  0
  -43.6252    0.6278   19.2746 C   0  0  0  0  0  0  0  0  0  0  0  0
  -48.5702   -0.9712   19.4106 C   0  0  0  0  0  0  0  0  0  0  0  0
  -44.4272    1.2588   20.2136 C   0  0  0  0  0  0  0  0  0  0  0  0
  -42.2472    0.7248   19.4196 C   0  0  0  0  0  0  0  0  0  0  0  0
  -43.8772    1.9618   21.2576 C   0  0  0  0  0  0  0  0  0  0  0  0
  -41.6962    1.4278   20.4646 C   0  0  0  0  0  0  0  0  0  0  0  0
  -42.5092    2.0468   21.3856 C   0  0  0  0  0  0  0  0  0  0  0  0
  -52.2702   -4.7362   16.1756 H   0  0  0  0  0  0  0  0  0  0  0  0
  -49.7692   -3.9712   14.9176 H   0  0  0  0  0  0  0  0  0  0  0  0
  -49.7142   -6.0942   16.3526 H   0  0  0  0  0  0  0  0  0  0  0  0
  -51.1732   -2.6632   17.1186 H   0  0  0  0  0  0  0  0  0  0  0  0
  -51.1012   -4.6162   18.4196 H   0  0  0  0  0  0  0  0  0  0  0  0
  -51.5382   -6.7692   14.7876 H   0  0  0  0  0  0  0  0  0  0  0  0
  -50.8312   -2.6082   13.6736 H   0  0  0  0  0  0  0  0  0  0  0  0
  -51.5022   -7.5592   16.4296 H   0  0  0  0  0  0  0  0  0  0  0  0
  -46.0942   -3.7592   13.9936 H   0  0  0  0  0  0  0  0  0  0  0  0
  -48.1882   -2.7742   14.5496 H   0  0  0  0  0  0  0  0  0  0  0  0
  -42.5222   -0.6842   17.2436 H   0  0  0  0  0  0  0  0  0  0  0  0
  -48.1912   -1.8922   19.3156 H   0  0  0  0  0  0  0  0  0  0  0  0
  -48.1332   -0.5052   20.1796 H   0  0  0  0  0  0  0  0  0  0  0  0
  -49.5542   -1.0272   19.5806 H   0  0  0  0  0  0  0  0  0  0  0  0
  -45.4222    1.2028   20.1286 H   0  0  0  0  0  0  0  0  0  0  0  0
  -41.6482    0.2788   18.7546 H   0  0  0  0  0  0  0  0  0  0  0  0
  -44.4702    2.4108   21.9256 H   0  0  0  0  0  0  0  0  0  0  0  0
  -40.7022    1.4888   20.5546 H   0  0  0  0  0  0  0  0  0  0  0  0
  -42.1082    2.5578   22.1456 H   0  0  0  0  0  0  0  0  0  0  0  0
  1 15  1  0
  1 16  1  0
  2 18  1  0
  6 17  1  0
  7 17  2  0
  8 21  1  0
  8 25  1  0
  9 19  1  0
  9 28  1  0
 10 23  1  0
 11 24  2  0
 12  3  1  0
 12 13  1  0
 12 14  1  0
 13  4  1  0
 13 15  1  0
 14  5  1  0
 14 16  1  0
 15  2  1  0
 16 17  1  0
 18 19  2  0
 18 20  1  0
 19 21  1  0
 20 23  2  0
 21 22  2  0
 22 23  1  0
 22 24  1  0
 24 26  1  0
 25 26  2  0
 25 27  1  0
 27 29  2  0
 27 30  1  0
 29 31  1  0
 30 32  2  0
 31 33  2  0
 32 33  1  0
  3 39  1  0
  4 40  1  0
  5 41  1  0
 10 42  1  0
 12 34  1  0
 13 35  1  0
 14 36  1  0
 15 37  1  0
 16 38  1  0
 20 43  1  0
 26 44  1  0
 28 45  1  0
 28 46  1  0
 28 47  1  0
 29 48  1  0
 30 49  1  0
 31 50  1  0
 32 51  1  0
 33 52  1  0
M  CHG  1   6  -1
M  END
>  <BioMolTech Lead Finder dG>
-6.16

>  <BioMolTech Lead Finder VSscore>
-9.36

>  <BioMolTech Lead Finder Rank score>
-8.939

>  <BioMolTech Lead Finder LE>
-0.187

>  <BioMolTech Lead Finder Structure Name>
/var/folders/xd/y7jw_xv579q2qqq7kks92xd80000gn/T/LeadFinder_61399_1/Ligand_1.sdf

>  <BioMolTech Lead Finder SDF id>
0

>  <BioMolTech Lead Finder Pose rank>
0

>  <BioMolTech Lead Finder version>
2001 1, 19 January 2019

>  <PUBCHEM_COMPOUND_CID>
3084961

>  <PUBCHEM_COMPOUND_CANONICALIZED>
1

>  <PUBCHEM_CACTVS_COMPLEXITY>
763

>  <PUBCHEM_CACTVS_HBOND_ACCEPTOR>
11

>  <PUBCHEM_CACTVS_HBOND_DONOR>
5

>  <PUBCHEM_CACTVS_ROTATABLE_BOND>
5

>  <PUBCHEM_CACTVS_SUBSKEYS>
AAADceB4PAAAAAAAAAAAAAAAAAAAAAAAAAA0YIEAAAAAAACBQAAAGgAACAAADBSwmAMyDoAABgCIAqDSCAICCAAkIAAIiAFGiMgdNzaGNR6ieWKl4BUPuQfK7LzOIQABCAAIQABCAAIQABCAAAAAAAAAAA==

>  <PUBCHEM_IUPAC_OPENEYE_NAME>
(2S,3S,4S,5R,6S)-3,4,5-trihydroxy-6-(5-hydroxy-8-methoxy-4-oxo-2-phenyl-chromen-7-yl)oxy-tetrahydropyran-2-carboxylic acid

>  <PUBCHEM_IUPAC_CAS_NAME>
(2S,3S,4S,5R,6S)-3,4,5-trihydroxy-6-[(5-hydroxy-8-methoxy-4-oxo-2-phenyl-1-benzopyran-7-yl)oxy]-2-oxanecarboxylic acid

>  <PUBCHEM_IUPAC_NAME_MARKUP>
(2<I>S</I>,3<I>S</I>,4<I>S</I>,5<I>R</I>,6<I>S</I>)-3,4,5-trihydroxy-6-(5-hydroxy-8-methoxy-4-oxo-2-phenylchromen-7-yl)oxyoxane-2-carboxylic acid

>  <PUBCHEM_IUPAC_NAME>
(2S,3S,4S,5R,6S)-3,4,5-trihydroxy-6-(5-hydroxy-8-methoxy-4-oxo-2-phenylchromen-7-yl)oxyoxane-2-carboxylic acid

>  <PUBCHEM_IUPAC_SYSTEMATIC_NAME>
(2S,3S,4S,5R,6S)-6-(8-methoxy-5-oxidanyl-4-oxidanylidene-2-phenyl-chromen-7-yl)oxy-3,4,5-tris(oxidanyl)oxane-2-carboxylic acid

>  <PUBCHEM_IUPAC_TRADITIONAL_NAME>
(2S,3S,4S,5R,6S)-3,4,5-trihydroxy-6-(5-hydroxy-4-keto-8-methoxy-2-phenyl-chromen-7-yl)oxy-tetrahydropyran-2-carboxylic acid

>  <PUBCHEM_IUPAC_INCHI>
InChI=1S/C22H20O11/c1-30-18-13(32-22-17(27)15(25)16(26)20(33-22)21(28)29)8-11(24)14-10(23)7-12(31-19(14)18)9-5-3-2-4-6-9/h2-8,15-17,20,22,24-27H,1H3,(H,28,29)/t15-,16-,17+,20-,22+/m0/s1

>  <PUBCHEM_IUPAC_INCHIKEY>
LNOHXHDWGCMVCO-NTKSAMNMSA-N

>  <PUBCHEM_XLOGP3_AA>
1.4

>  <PUBCHEM_EXACT_MASS>
460.100561

>  <PUBCHEM_MOLECULAR_FORMULA>
C22H20O11

>  <PUBCHEM_MOLECULAR_WEIGHT>
460.4

>  <PUBCHEM_OPENEYE_CAN_SMILES>
COC1=C(C=C(C2=C1OC(=CC2=O)C3=CC=CC=C3)O)OC4C(C(C(C(O4)C(=O)O)O)O)O

>  <PUBCHEM_OPENEYE_ISO_SMILES>
COC1=C(C=C(C2=C1OC(=CC2=O)C3=CC=CC=C3)O)O[C@H]4[C@@H]([C@H]([C@@H]([C@H](O4)C(=O)O)O)O)O

>  <PUBCHEM_CACTVS_TPSA>
172

>  <PUBCHEM_MONOISOTOPIC_WEIGHT>
460.100561

>  <PUBCHEM_TOTAL_CHARGE>
0

>  <PUBCHEM_HEAVY_ATOM_COUNT>
33

>  <PUBCHEM_ATOM_DEF_STEREO_COUNT>
5

>  <PUBCHEM_ATOM_UDEF_STEREO_COUNT>
0

>  <PUBCHEM_BOND_DEF_STEREO_COUNT>
0

>  <PUBCHEM_BOND_UDEF_STEREO_COUNT>
0

>  <PUBCHEM_ISOTOPIC_ATOM_COUNT>
0

>  <PUBCHEM_COMPONENT_COUNT>
1

>  <PUBCHEM_CACTVS_TAUTO_COUNT>
-1

>  <PUBCHEM_COORDINATE_TYPE>
1
5
255

>  <PUBCHEM_BONDANNOTATIONS>
16  17  5
18  19  8
18  20  8
19  21  8
15  2  5
20  23  8
21  22  8
22  23  8
22  24  8
24  26  8
25  26  8
27  29  8
27  30  8
29  31  8
12  3  5
30  32  8
31  33  8
32  33  8
13  4  6
14  5  6
8  21  8
8  25  8

>  <LF dG>
-6.16

>  <LF VSscore>
-9.36

>  <LF Rank Score>
-8.939

>  <LF LE>
-0.187

>  <Preferred Pose_cresset>
true

>  <Favorite_cresset>
false

>  <Protein_cresset>
6M2N_Monomer_P

>  <MW_cresset>
459.4

>  <#Atoms_cresset>
33

>  <SlogP_cresset>
1.4

>  <TPSA_cresset>
175

>  <Flexibility_cresset>
7.6

>  <#RB_cresset>
9

>  <Rof5_cresset>
1

>  <Filename_cresset>
Wogonoside.sdf

>  <Confs_cresset>
0

>  <Poses_cresset>
10

>  <_cresset_fieldpoints>
    -5     -52.774384      -4.139619      13.564548     -9.7089
    -5     -50.217686       0.793546      16.992622     -7.2101
    -5     -51.714058      -7.289937      19.083181     -8.3833
    -5     -48.614731      -7.018121      20.885492     -9.9298
    -5     -47.412506      -6.694118      20.062721     -9.8248
    -5     -47.435097      -4.366740      17.515690     -8.3689
    -5     -43.165276      -1.185186      21.903172     -4.3844
    -5     -43.778793      -2.633789      13.549810    -14.7642
    -5     -43.309090       3.726193      18.552799     -4.6300
    -6     -47.725273      -4.729350      13.699279      8.0857
    -6     -50.773659      -8.285622      15.031702     11.9397
    -6     -49.307552      -3.115104      12.801633      7.6060
    -6     -53.047962      -3.479582      18.173069      2.4012
    -6     -39.226406       0.400070      18.946259      1.8879
    -6     -51.785622      -2.572822      19.362907      2.1009
    -6     -43.359039       3.688753      23.874432      1.8808
    -6     -47.060707       1.408413      21.832409      1.4410
    -6     -39.657021       2.745339      22.447756      1.9884
    -7     -51.123383       0.172458      17.665592     -2.2499
    -7     -50.745022      -0.433958      14.090918     -2.0703
    -7     -53.463406      -2.228677      15.684408     -1.6783
    -7     -49.232712      -6.261682      13.697338     -1.8843
    -7     -49.852455      -8.245831      14.808140     -1.3634
    -7     -53.366409      -6.162900      18.309986     -1.7101
    -7     -53.661858      -7.192836      15.938686     -1.5252
    -7     -51.267162      -4.649685      12.421633     -1.5663
    -7     -53.412773      -3.477433      18.125628     -1.7927
    -7     -50.351959      -3.337152      20.751493     -1.8486
    -7     -51.675892      -2.433050      19.677155     -1.9464
    -7     -52.232277      -7.025447      19.419796     -1.7479
    -7     -46.889389       2.189960      18.313412     -2.6345
    -7     -44.137802      -1.089730      13.020514     -1.6406
    -7     -47.296989      -5.090947      16.601068     -3.3599
    -7     -49.091820      -3.554410      12.436453     -1.7926
    -7     -44.003723      -4.523583      15.226730     -1.7702
    -7     -46.881020      -3.919950      18.247967     -3.5573
    -7     -46.967381       1.174331      14.490249     -1.8822
    -7     -43.194637      -1.490366      21.931557     -1.7971
    -7     -43.155506       3.900385      18.333824     -1.7844
    -7     -43.570595       3.843747      24.066692     -0.9672
    -7     -45.534103      -2.050311      20.104332     -3.0016
    -7     -39.421474       2.845431      22.554272     -0.9674
    -7     -44.846901       1.992213      16.260351     -2.4179
    -8     -50.765663      -4.498676      16.489136      5.1831
    -8     -46.968773      -1.567967      16.194378      6.6082
    -8     -43.063179       1.342169      20.333836      7.1498
    -8     -44.748535      -0.977091      16.938725      5.0137
    -8     -43.106186       0.097219      18.468269      5.4419
    -8     -48.692047      -1.442808      20.141407      2.5226

$$$$
Untitled
  xed2sdf_05210316543D
 
 52 55  0  0  1  0  0  0  0  0999 V2000
  -48.7512   -0.2038   16.4183 O   0  0  0  0  0  0  0  0  0  0  0  0
  -50.3362   -1.1518   14.8343 O   0  0  0  0  0  0  0  0  0  0  0  0
  -46.6122   -3.8338   16.4503 O   0  0  0  0  0  0  0  0  0  0  0  0
  -49.1372   -3.6548   15.1073 O   0  0  0  0  0  0  0  0  0  0  0  0
  -46.0902   -1.8268   18.4503 O   0  0  0  0  0  0  0  0  0  0  0  0
  -47.9072    1.6382   18.6813 O   0  5  0  0  0  0  0  0  0  0  0  0
  -46.0102    0.9452   17.6173 O   0  0  0  0  0  0  0  0  0  0  0  0
  -51.6052    2.9342   12.7833 O   0  0  0  0  0  0  0  0  0  0  0  0
  -52.1892    0.8802   14.4043 O   0  0  0  0  0  0  0  0  0  0  0  0
  -47.2882    0.9832   11.9613 O   0  0  0  0  0  0  0  0  0  0  0  0
  -48.0482    3.1722   10.8643 O   0  0  0  0  0  0  0  0  0  0  0  0
  -47.5732   -2.8218   16.7863 C   0  0  0  0  0  0  0  0  0  0  0  0
  -48.4442   -2.4838   15.5633 C   0  0  0  0  0  0  0  0  0  0  0  0
  -46.8652   -1.5458   17.2763 C   0  0  0  0  0  0  0  0  0  0  0  0
  -49.4492   -1.3818   15.9533 C   0  0  0  0  0  0  0  0  0  0  0  0
  -47.9252   -0.4658   17.5733 C   0  0  0  0  0  0  0  0  0  0  0  0
  -47.2262    0.8022   17.9903 C   0  0  0  0  0  0  0  0  0  0  0  0
  -50.0702   -0.1248   14.0213 C   0  0  0  0  0  0  0  0  0  0  0  0
  -50.9832    0.8982   13.8033 C   0  0  0  0  0  0  0  0  0  0  0  0
  -48.8282   -0.0798   13.4033 C   0  0  0  0  0  0  0  0  0  0  0  0
  -50.6722    1.9552   12.9593 C   0  0  0  0  0  0  0  0  0  0  0  0
  -49.4252    1.9792   12.3353 C   0  0  0  0  0  0  0  0  0  0  0  0
  -48.5042    0.9532   12.5663 C   0  0  0  0  0  0  0  0  0  0  0  0
  -49.1222    3.0912   11.4593 C   0  0  0  0  0  0  0  0  0  0  0  0
  -51.2932    3.9942   11.9643 C   0  0  0  0  0  0  0  0  0  0  0  0
  -50.1042    4.1012   11.3033 C   0  0  0  0  0  0  0  0  0  0  0  0
  -52.3332    5.0492   11.8273 C   0  0  0  0  0  0  0  0  0  0  0  0
  -52.2792    1.5082   15.6983 C   0  0  0  0  0  0  0  0  0  0  0  0
  -53.5252    4.9052   12.5213 C   0  0  0  0  0  0  0  0  0  0  0  0
  -52.1672    6.1782   11.0363 C   0  0  0  0  0  0  0  0  0  0  0  0
  -54.5152    5.8522   12.4313 C   0  0  0  0  0  0  0  0  0  0  0  0
  -53.1582    7.1262   10.9463 C   0  0  0  0  0  0  0  0  0  0  0  0
  -54.3342    6.9662   11.6423 C   0  0  0  0  0  0  0  0  0  0  0  0
  -48.1542   -3.1758   17.5183 H   0  0  0  0  0  0  0  0  0  0  0  0
  -47.8632   -2.1558   14.8183 H   0  0  0  0  0  0  0  0  0  0  0  0
  -46.2442   -1.2138   16.5663 H   0  0  0  0  0  0  0  0  0  0  0  0
  -50.0192   -1.6658   16.7243 H   0  0  0  0  0  0  0  0  0  0  0  0
  -48.5192   -0.7968   18.3073 H   0  0  0  0  0  0  0  0  0  0  0  0
  -46.8492   -4.2898   15.5853 H   0  0  0  0  0  0  0  0  0  0  0  0
  -48.5292   -4.2598   14.5833 H   0  0  0  0  0  0  0  0  0  0  0  0
  -45.1892   -1.3808   18.4093 H   0  0  0  0  0  0  0  0  0  0  0  0
  -46.8492    0.0782   11.9713 H   0  0  0  0  0  0  0  0  0  0  0  0
  -48.1642   -0.8078   13.5713 H   0  0  0  0  0  0  0  0  0  0  0  0
  -49.9262    4.8872   10.7113 H   0  0  0  0  0  0  0  0  0  0  0  0
  -51.3812    1.8712   15.9473 H   0  0  0  0  0  0  0  0  0  0  0  0
  -52.9462    2.2522   15.6673 H   0  0  0  0  0  0  0  0  0  0  0  0
  -52.5712    0.8362   16.3783 H   0  0  0  0  0  0  0  0  0  0  0  0
  -53.6662    4.0992   13.0963 H   0  0  0  0  0  0  0  0  0  0  0  0
  -51.3162    6.3032   10.5263 H   0  0  0  0  0  0  0  0  0  0  0  0
  -55.3692    5.7332   12.9383 H   0  0  0  0  0  0  0  0  0  0  0  0
  -53.0242    7.9342   10.3723 H   0  0  0  0  0  0  0  0  0  0  0  0
  -55.0542    7.6562   11.5763 H   0  0  0  0  0  0  0  0  0  0  0  0
  1 15  1  0
  1 16  1  0
  2 18  1  0
  6 17  1  0
  7 17  2  0
  8 21  1  0
  8 25  1  0
  9 19  1  0
  9 28  1  0
 10 23  1  0
 11 24  2  0
 12  3  1  0
 12 13  1  0
 12 14  1  0
 13  4  1  0
 13 15  1  0
 14  5  1  0
 14 16  1  0
 15  2  1  0
 16 17  1  0
 18 19  2  0
 18 20  1  0
 19 21  1  0
 20 23  2  0
 21 22  2  0
 22 23  1  0
 22 24  1  0
 24 26  1  0
 25 26  2  0
 25 27  1  0
 27 29  2  0
 27 30  1  0
 29 31  1  0
 30 32  2  0
 31 33  2  0
 32 33  1  0
  3 39  1  0
  4 40  1  0
  5 41  1  0
 10 42  1  0
 12 34  1  0
 13 35  1  0
 14 36  1  0
 15 37  1  0
 16 38  1  0
 20 43  1  0
 26 44  1  0
 28 45  1  0
 28 46  1  0
 28 47  1  0
 29 48  1  0
 30 49  1  0
 31 50  1  0
 32 51  1  0
 33 52  1  0
M  CHG  1   6  -1
M  END
>  <BioMolTech Lead Finder dG>
-5.004

>  <BioMolTech Lead Finder VSscore>
-9.327

>  <BioMolTech Lead Finder Rank score>
-9.858

>  <BioMolTech Lead Finder LE>
-0.152

>  <BioMolTech Lead Finder Structure Name>
/var/folders/xd/y7jw_xv579q2qqq7kks92xd80000gn/T/LeadFinder_58627_1/Ligand_1.sdf

>  <BioMolTech Lead Finder SDF id>
0

>  <BioMolTech Lead Finder Pose rank>
0

>  <BioMolTech Lead Finder version>
2001 1, 19 January 2019

>  <PUBCHEM_COMPOUND_CID>
3084961

>  <PUBCHEM_COMPOUND_CANONICALIZED>
1

>  <PUBCHEM_CACTVS_COMPLEXITY>
763

>  <PUBCHEM_CACTVS_HBOND_ACCEPTOR>
11

>  <PUBCHEM_CACTVS_HBOND_DONOR>
5

>  <PUBCHEM_CACTVS_ROTATABLE_BOND>
5

>  <PUBCHEM_CACTVS_SUBSKEYS>
AAADceB4PAAAAAAAAAAAAAAAAAAAAAAAAAA0YIEAAAAAAACBQAAAGgAACAAADBSwmAMyDoAABgCIAqDSCAICCAAkIAAIiAFGiMgdNzaGNR6ieWKl4BUPuQfK7LzOIQABCAAIQABCAAIQABCAAAAAAAAAAA==

>  <PUBCHEM_IUPAC_OPENEYE_NAME>
(2S,3S,4S,5R,6S)-3,4,5-trihydroxy-6-(5-hydroxy-8-methoxy-4-oxo-2-phenyl-chromen-7-yl)oxy-tetrahydropyran-2-carboxylic acid

>  <PUBCHEM_IUPAC_CAS_NAME>
(2S,3S,4S,5R,6S)-3,4,5-trihydroxy-6-[(5-hydroxy-8-methoxy-4-oxo-2-phenyl-1-benzopyran-7-yl)oxy]-2-oxanecarboxylic acid

>  <PUBCHEM_IUPAC_NAME_MARKUP>
(2<I>S</I>,3<I>S</I>,4<I>S</I>,5<I>R</I>,6<I>S</I>)-3,4,5-trihydroxy-6-(5-hydroxy-8-methoxy-4-oxo-2-phenylchromen-7-yl)oxyoxane-2-carboxylic acid

>  <PUBCHEM_IUPAC_NAME>
(2S,3S,4S,5R,6S)-3,4,5-trihydroxy-6-(5-hydroxy-8-methoxy-4-oxo-2-phenylchromen-7-yl)oxyoxane-2-carboxylic acid

>  <PUBCHEM_IUPAC_SYSTEMATIC_NAME>
(2S,3S,4S,5R,6S)-6-(8-methoxy-5-oxidanyl-4-oxidanylidene-2-phenyl-chromen-7-yl)oxy-3,4,5-tris(oxidanyl)oxane-2-carboxylic acid

>  <PUBCHEM_IUPAC_TRADITIONAL_NAME>
(2S,3S,4S,5R,6S)-3,4,5-trihydroxy-6-(5-hydroxy-4-keto-8-methoxy-2-phenyl-chromen-7-yl)oxy-tetrahydropyran-2-carboxylic acid

>  <PUBCHEM_IUPAC_INCHI>
InChI=1S/C22H20O11/c1-30-18-13(32-22-17(27)15(25)16(26)20(33-22)21(28)29)8-11(24)14-10(23)7-12(31-19(14)18)9-5-3-2-4-6-9/h2-8,15-17,20,22,24-27H,1H3,(H,28,29)/t15-,16-,17+,20-,22+/m0/s1

>  <PUBCHEM_IUPAC_INCHIKEY>
LNOHXHDWGCMVCO-NTKSAMNMSA-N

>  <PUBCHEM_XLOGP3_AA>
1.4

>  <PUBCHEM_EXACT_MASS>
460.100561

>  <PUBCHEM_MOLECULAR_FORMULA>
C22H20O11

>  <PUBCHEM_MOLECULAR_WEIGHT>
460.4

>  <PUBCHEM_OPENEYE_CAN_SMILES>
COC1=C(C=C(C2=C1OC(=CC2=O)C3=CC=CC=C3)O)OC4C(C(C(C(O4)C(=O)O)O)O)O

>  <PUBCHEM_OPENEYE_ISO_SMILES>
COC1=C(C=C(C2=C1OC(=CC2=O)C3=CC=CC=C3)O)O[C@H]4[C@@H]([C@H]([C@@H]([C@H](O4)C(=O)O)O)O)O

>  <PUBCHEM_CACTVS_TPSA>
172

>  <PUBCHEM_MONOISOTOPIC_WEIGHT>
460.100561

>  <PUBCHEM_TOTAL_CHARGE>
0

>  <PUBCHEM_HEAVY_ATOM_COUNT>
33

>  <PUBCHEM_ATOM_DEF_STEREO_COUNT>
5

>  <PUBCHEM_ATOM_UDEF_STEREO_COUNT>
0

>  <PUBCHEM_BOND_DEF_STEREO_COUNT>
0

>  <PUBCHEM_BOND_UDEF_STEREO_COUNT>
0

>  <PUBCHEM_ISOTOPIC_ATOM_COUNT>
0

>  <PUBCHEM_COMPONENT_COUNT>
1

>  <PUBCHEM_CACTVS_TAUTO_COUNT>
-1

>  <PUBCHEM_COORDINATE_TYPE>
1
5
255

>  <PUBCHEM_BONDANNOTATIONS>
16  17  5
18  19  8
18  20  8
19  21  8
15  2  5
20  23  8
21  22  8
22  23  8
22  24  8
24  26  8
25  26  8
27  29  8
27  30  8
29  31  8
12  3  5
30  32  8
31  33  8
32  33  8
13  4  6
14  5  6
8  21  8
8  25  8

>  <LF dG>
-5.004

>  <LF VSscore>
-9.327

>  <LF Rank Score>
-9.858

>  <LF LE>
-0.152

>  <Preferred Pose_cresset>
true

>  <Favorite_cresset>
false

>  <Protein_cresset>
6M2N_Monomer_P

>  <MW_cresset>
459.4

>  <#Atoms_cresset>
33

>  <SlogP_cresset>
1.4

>  <TPSA_cresset>
175

>  <Flexibility_cresset>
7.6

>  <#RB_cresset>
9

>  <Rof5_cresset>
1

>  <Filename_cresset>
Wogonoside.sdf

>  <Confs_cresset>
0

>  <Poses_cresset>
10

>  <_cresset_fieldpoints>
    -5     -51.024628      -3.475874      14.597251     -8.7869
    -5     -52.707165      -1.623885      14.371301     -7.6391
    -5     -45.636353      -3.851112      18.359821    -10.4614
    -5     -46.786098       3.063149      18.978050     -9.6889
    -5     -46.345703       2.403493      10.910282    -14.7527
    -5     -45.597530       2.651361      18.290192     -9.1943
    -5     -49.772964       1.485183      19.017807     -6.0247
    -5     -48.563606       1.952629      15.841714     -6.3083
    -5     -54.455967       4.337410       9.536847     -4.5179
    -5     -52.090736       7.343622      14.081865     -4.3492
    -6     -46.971489      -4.208146      13.812990     13.2288
    -6     -50.107971      -2.385663      18.868073      2.0777
    -6     -43.785797      -0.996399      17.410721      3.1514
    -6     -55.668671       4.101523      14.715169      1.4590
    -6     -46.480049      -1.783463      12.882456      9.3675
    -6     -50.969059       8.245750       9.100416      1.9175
    -6     -57.173805       7.576565      12.728674      1.9291
    -6     -54.799988       9.682713      10.176900      2.0291
    -7     -52.822056      -1.747201      15.581802     -2.1949
    -7     -48.560677      -5.804996      16.287796     -1.6147
    -7     -44.481743      -3.632919      17.715078     -1.5136
    -7     -49.929886      -3.253152      12.829185     -2.2831
    -7     -50.652420      -4.337375      16.982380     -1.6927
    -7     -43.948921      -0.020336      17.010548     -1.4571
    -7     -47.737015      -2.579133      20.207722     -1.6571
    -7     -46.345207      -0.658813      20.503256     -1.6222
    -7     -46.290401       0.954782      15.106161     -2.9179
    -7     -50.131466      -2.674840      19.104441     -1.7860
    -7     -50.442337       1.138412      18.280510     -2.3402
    -7     -46.187157       3.272790      12.615467     -1.6729
    -7     -48.774139       2.289501      15.946164     -3.5977
    -7     -52.117928       2.051085       9.971055     -2.4156
    -7     -53.883675       1.688578      12.290865     -2.6318
    -7     -47.507286       1.118009       9.463272     -1.6990
    -7     -51.044670      -0.568255      10.639280     -1.8900
    -7     -57.470070       7.477132      12.842363     -0.9672
    -7     -54.432709       4.260638       9.225920     -1.7838
    -7     -54.857124       9.942311      10.090796     -0.9673
    -7     -51.090050       4.481640      14.939742     -2.9843
    -7     -51.865849       7.385296      14.288296     -1.7957
    -8     -48.050636      -1.845906      16.713051      5.1847
    -8     -49.721664       0.937638      13.167471      6.6076
    -8     -52.293770       1.904054      16.482330      2.5269
    -8     -53.335861       6.011690      11.731316      7.1493
    -8     -50.061882       3.017648      11.989219      5.0134
    -8     -51.348434       5.046893      11.334484      5.4420

$$$$
W_Wogonin_D
  xed2sdf_05210316543D
 
 33 35  0  0  0  0  0  0  0  0999 V2000
  -47.1971   -2.7747   16.7349 O   0  0  0  0  0  0  0  0  0  0  0  0
  -48.6901   -4.9877   17.6529 O   0  0  0  0  0  0  0  0  0  0  0  0
  -50.1651   -2.6147   12.9169 O   0  0  0  0  0  0  0  0  0  0  0  0
  -50.7511   -5.8977   16.2299 O   0  0  0  0  0  0  0  0  0  0  0  0
  -48.1471   -0.8777   13.3069 O   0  0  0  0  0  0  0  0  0  0  0  0
  -48.6571   -2.6417   14.8049 C   0  0  0  0  0  0  0  0  0  0  0  0
  -48.2611   -3.2347   16.0129 C   0  0  0  0  0  0  0  0  0  0  0  0
  -46.4831   -1.6987   16.2699 C   0  0  0  0  0  0  0  0  0  0  0  0
  -48.9751   -4.3367   16.4969 C   0  0  0  0  0  0  0  0  0  0  0  0
  -47.8961   -1.4957   14.3399 C   0  0  0  0  0  0  0  0  0  0  0  0
  -49.7521   -3.1577   14.0929 C   0  0  0  0  0  0  0  0  0  0  0  0
  -46.7961   -1.0507   15.1119 C   0  0  0  0  0  0  0  0  0  0  0  0
  -45.3271   -1.2527   17.0929 C   0  0  0  0  0  0  0  0  0  0  0  0
  -50.0481   -4.8247   15.7749 C   0  0  0  0  0  0  0  0  0  0  0  0
  -50.4311   -4.2377   14.5829 C   0  0  0  0  0  0  0  0  0  0  0  0
  -44.1401   -1.9707   17.1749 C   0  0  0  0  0  0  0  0  0  0  0  0
  -45.4251   -0.0727   17.8159 C   0  0  0  0  0  0  0  0  0  0  0  0
  -43.0971   -1.5257   17.9499 C   0  0  0  0  0  0  0  0  0  0  0  0
  -44.3821    0.3723   18.5919 C   0  0  0  0  0  0  0  0  0  0  0  0
  -43.2151   -0.3537   18.6609 C   0  0  0  0  0  0  0  0  0  0  0  0
  -47.9721   -6.2357   17.6429 C   0  0  0  0  0  0  0  0  0  0  0  0
  -49.4011   -2.4157   12.2999 H   0  0  0  0  0  0  0  0  0  0  0  0
  -50.9741   -6.5447   15.4929 H   0  0  0  0  0  0  0  0  0  0  0  0
  -46.2531   -0.2677   14.8109 H   0  0  0  0  0  0  0  0  0  0  0  0
  -51.2091   -4.6067   14.0749 H   0  0  0  0  0  0  0  0  0  0  0  0
  -44.0451   -2.8247   16.6619 H   0  0  0  0  0  0  0  0  0  0  0  0
  -46.2681    0.4623   17.7709 H   0  0  0  0  0  0  0  0  0  0  0  0
  -42.2501   -2.0557   17.9969 H   0  0  0  0  0  0  0  0  0  0  0  0
  -44.4711    1.2243   19.1069 H   0  0  0  0  0  0  0  0  0  0  0  0
  -42.4551   -0.0307   19.2259 H   0  0  0  0  0  0  0  0  0  0  0  0
  -47.7581   -6.4807   16.6979 H   0  0  0  0  0  0  0  0  0  0  0  0
  -47.1251   -6.1417   18.1669 H   0  0  0  0  0  0  0  0  0  0  0  0
  -48.5341   -6.9507   18.0589 H   0  0  0  0  0  0  0  0  0  0  0  0
  1  7  1  0
  1  8  1  0
  2  9  1  0
  2 21  1  0
  3 11  1  0
  4 14  1  0
  5 10  2  0
  6  7  2  0
  6 10  1  0
  6 11  1  0
  7  9  1  0
  8 12  2  0
  8 13  1  0
  9 14  2  0
 10 12  1  0
 11 15  2  0
 13 16  2  0
 13 17  1  0
 14 15  1  0
 16 18  1  0
 17 19  2  0
 18 20  2  0
 19 20  1  0
  3 22  1  0
  4 23  1  0
 12 24  1  0
 15 25  1  0
 16 26  1  0
 17 27  1  0
 18 28  1  0
 19 29  1  0
 20 30  1  0
 21 31  1  0
 21 32  1  0
 21 33  1  0
M  END
>  <BioMolTech Lead Finder dG>
-6.254

>  <BioMolTech Lead Finder VSscore>
-7.405

>  <BioMolTech Lead Finder Rank score>
-9.484

>  <BioMolTech Lead Finder LE>
-0.298

>  <BioMolTech Lead Finder Structure Name>
/var/folders/xd/y7jw_xv579q2qqq7kks92xd80000gn/T/LeadFinder_60499_1/Ligand_1.sdf

>  <BioMolTech Lead Finder SDF id>
0

>  <BioMolTech Lead Finder Pose rank>
0

>  <BioMolTech Lead Finder version>
2001 1, 19 January 2019

>  <PUBCHEM_COMPOUND_CID>
5281703

>  <PUBCHEM_COMPOUND_CANONICALIZED>
1

>  <PUBCHEM_CACTVS_COMPLEXITY>
426

>  <PUBCHEM_CACTVS_HBOND_ACCEPTOR>
5

>  <PUBCHEM_CACTVS_HBOND_DONOR>
2

>  <PUBCHEM_CACTVS_ROTATABLE_BOND>
2

>  <PUBCHEM_CACTVS_SUBSKEYS>
AAADccB4OAAAAAAAAAAAAAAAAAAAAAAAAAAwYIAAAAAAAACBQAAAGgAACAAADASAmAIyBoAABgCIAqBSAAACCAAkIAAIiAEGiMgNJzaGNRqCeWOl4BULuQfK7LzOIQABCAAIQABCAAIQABCAAAAAAAAAAA==

>  <PUBCHEM_IUPAC_OPENEYE_NAME>
5,7-dihydroxy-8-methoxy-2-phenyl-chromen-4-one

>  <PUBCHEM_IUPAC_CAS_NAME>
5,7-dihydroxy-8-methoxy-2-phenyl-1-benzopyran-4-one

>  <PUBCHEM_IUPAC_NAME_MARKUP>
5,7-dihydroxy-8-methoxy-2-phenylchromen-4-one

>  <PUBCHEM_IUPAC_NAME>
5,7-dihydroxy-8-methoxy-2-phenylchromen-4-one

>  <PUBCHEM_IUPAC_SYSTEMATIC_NAME>
8-methoxy-5,7-bis(oxidanyl)-2-phenyl-chromen-4-one

>  <PUBCHEM_IUPAC_TRADITIONAL_NAME>
5,7-dihydroxy-8-methoxy-2-phenyl-chromone

>  <PUBCHEM_IUPAC_INCHI>
InChI=1S/C16H12O5/c1-20-15-12(19)7-10(17)14-11(18)8-13(21-16(14)15)9-5-3-2-4-6-9/h2-8,17,19H,1H3

>  <PUBCHEM_IUPAC_INCHIKEY>
XLTFNNCXVBYBSX-UHFFFAOYSA-N

>  <PUBCHEM_XLOGP3_AA>
3

>  <PUBCHEM_EXACT_MASS>
284.068473

>  <PUBCHEM_MOLECULAR_FORMULA>
C16H12O5

>  <PUBCHEM_MOLECULAR_WEIGHT>
284.26

>  <PUBCHEM_OPENEYE_CAN_SMILES>
COC1=C(C=C(C2=C1OC(=CC2=O)C3=CC=CC=C3)O)O

>  <PUBCHEM_OPENEYE_ISO_SMILES>
COC1=C(C=C(C2=C1OC(=CC2=O)C3=CC=CC=C3)O)O

>  <PUBCHEM_CACTVS_TPSA>
76

>  <PUBCHEM_MONOISOTOPIC_WEIGHT>
284.068473

>  <PUBCHEM_TOTAL_CHARGE>
0

>  <PUBCHEM_HEAVY_ATOM_COUNT>
21

>  <PUBCHEM_ATOM_DEF_STEREO_COUNT>
0

>  <PUBCHEM_ATOM_UDEF_STEREO_COUNT>
0

>  <PUBCHEM_BOND_DEF_STEREO_COUNT>
0

>  <PUBCHEM_BOND_UDEF_STEREO_COUNT>
0

>  <PUBCHEM_ISOTOPIC_ATOM_COUNT>
0

>  <PUBCHEM_COMPONENT_COUNT>
1

>  <PUBCHEM_CACTVS_TAUTO_COUNT>
-1

>  <PUBCHEM_COORDINATE_TYPE>
1
5
255

>  <PUBCHEM_BONDANNOTATIONS>
1  7  8
1  8  8
10  12  8
11  15  8
13  16  8
13  17  8
14  15  8
16  18  8
17  19  8
18  20  8
19  20  8
6  10  8
6  11  8
6  7  8
7  9  8
8  12  8
9  14  8

>  <LF dG>
-6.254

>  <LF VSscore>
-7.405

>  <LF Rank Score>
-9.484

>  <LF LE>
-0.298

>  <Preferred Pose_cresset>
true

>  <Favorite_cresset>
false

>  <Protein_cresset>
6M2N_Monomer_P

>  <MW_cresset>
284.3

>  <#Atoms_cresset>
21

>  <SlogP_cresset>
2.6

>  <TPSA_cresset>
76

>  <Flexibility_cresset>
1.7

>  <#RB_cresset>
4

>  <Rof5_cresset>
0

>  <Filename_cresset>
Wogonin.sdf

>  <Confs_cresset>
0

>  <Poses_cresset>
10

>  <_cresset_fieldpoints>
    -5     -51.036400      -5.787623      18.119913     -9.9368
    -5     -47.255150      -3.348548      18.740459     -7.1285
    -5     -49.990738      -0.461979      13.000453    -15.0017
    -5     -47.614597       0.759712      12.483054    -14.4033
    -5     -42.910789       0.781324      15.773053     -2.1645
    -6     -46.624672       2.464664      18.804173      2.9227
    -6     -51.460258      -7.081689      13.809035      9.9064
    -6     -48.353409      -3.535150      11.153750      5.0826
    -6     -48.203865       0.721986      17.210552      2.8154
    -6     -45.133568      -4.047732      15.184616      3.9404
    -6     -40.385918      -1.394354      19.274519      2.7852
    -6     -42.640846       2.039634      20.455959      2.7495
    -7     -51.099045      -1.569045      16.952812     -1.8444
    -7     -50.319115      -4.253588      11.041925     -1.2393
    -7     -47.125027      -2.908101      11.833097     -1.7774
    -7     -50.522507      -0.167550      12.960899     -1.7159
    -7     -53.220982      -5.896704      15.704741     -1.2696
    -7     -48.842144      -0.162391      17.242542     -2.6155
    -7     -43.707573       0.645719      14.928257     -2.0448
    -7     -45.484131      -4.785861      16.012249     -2.8492
    -7     -40.062653      -1.337425      19.464539     -0.9673
    -7     -42.510094       2.270967      20.699408     -0.9670
    -7     -47.097305      -5.773211      14.111298     -2.2170
    -7     -49.048698      -7.717978      14.755575     -1.7458
    -7     -46.697784      -3.472009      19.049446     -3.0548
    -7     -51.146393      -6.191428      18.624058     -1.7616
    -8     -49.352623      -3.720964      15.267328      6.5970
    -8     -44.264565      -0.800381      17.876736      7.1505
    -8     -47.523788      -6.992889      17.605766      2.5137
    -8     -47.648277      -2.010059      15.248901      4.9776

$$$$
Untitled
  xed2sdf_05210316543D
 
 33 35  0  0  0  0  0  0  0  0999 V2000
  -47.1979   -2.7901   16.7902 O   0  0  0  0  0  0  0  0  0  0  0  0
  -48.6749   -5.0301   17.6642 O   0  0  0  0  0  0  0  0  0  0  0  0
  -50.2139   -2.5301   13.0152 O   0  0  0  0  0  0  0  0  0  0  0  0
  -50.7519   -5.9061   16.2432 O   0  0  0  0  0  0  0  0  0  0  0  0
  -48.1949   -0.8011   13.4272 O   0  0  0  0  0  0  0  0  0  0  0  0
  -48.6829   -2.6061   14.8832 C   0  0  0  0  0  0  0  0  0  0  0  0
  -48.2699   -3.2321   16.0682 C   0  0  0  0  0  0  0  0  0  0  0  0
  -46.4919   -1.6991   16.3452 C   0  0  0  0  0  0  0  0  0  0  0  0
  -48.9749   -4.3491   16.5312 C   0  0  0  0  0  0  0  0  0  0  0  0
  -47.9289   -1.4461   14.4402 C   0  0  0  0  0  0  0  0  0  0  0  0
  -49.7849   -3.1051   14.1712 C   0  0  0  0  0  0  0  0  0  0  0  0
  -46.8209   -1.0211   15.2102 C   0  0  0  0  0  0  0  0  0  0  0  0
  -45.3259   -1.2741   17.1662 C   0  0  0  0  0  0  0  0  0  0  0  0
  -50.0569   -4.8181   15.8102 C   0  0  0  0  0  0  0  0  0  0  0  0
  -50.4559   -4.2001   14.6382 C   0  0  0  0  0  0  0  0  0  0  0  0
  -45.3389   -0.1331   17.9582 C   0  0  0  0  0  0  0  0  0  0  0  0
  -44.1689   -2.0401   17.1462 C   0  0  0  0  0  0  0  0  0  0  0  0
  -44.2389    0.2249   18.6992 C   0  0  0  0  0  0  0  0  0  0  0  0
  -43.0689   -1.6811   17.8862 C   0  0  0  0  0  0  0  0  0  0  0  0
  -43.1009   -0.5461   18.6652 C   0  0  0  0  0  0  0  0  0  0  0  0
  -47.9779   -6.2891   17.6102 C   0  0  0  0  0  0  0  0  0  0  0  0
  -49.4739   -2.4121   12.3502 H   0  0  0  0  0  0  0  0  0  0  0  0
  -50.9689   -6.5401   15.4942 H   0  0  0  0  0  0  0  0  0  0  0  0
  -46.2829   -0.2281   14.9232 H   0  0  0  0  0  0  0  0  0  0  0  0
  -51.2399   -4.5561   14.1312 H   0  0  0  0  0  0  0  0  0  0  0  0
  -46.1619    0.4349   17.9902 H   0  0  0  0  0  0  0  0  0  0  0  0
  -44.1359   -2.8671   16.5852 H   0  0  0  0  0  0  0  0  0  0  0  0
  -44.2659    1.0499   19.2642 H   0  0  0  0  0  0  0  0  0  0  0  0
  -42.2429   -2.2441   17.8592 H   0  0  0  0  0  0  0  0  0  0  0  0
  -42.2999   -0.2841   19.2032 H   0  0  0  0  0  0  0  0  0  0  0  0
  -47.7909   -6.5161   16.6542 H   0  0  0  0  0  0  0  0  0  0  0  0
  -47.1179   -6.2221   18.1152 H   0  0  0  0  0  0  0  0  0  0  0  0
  -48.5429   -7.0041   18.0222 H   0  0  0  0  0  0  0  0  0  0  0  0
  1  7  1  0
  1  8  1  0
  2  9  1  0
  2 21  1  0
  3 11  1  0
  4 14  1  0
  5 10  2  0
  6  7  2  0
  6 10  1  0
  6 11  1  0
  7  9  1  0
  8 12  2  0
  8 13  1  0
  9 14  2  0
 10 12  1  0
 11 15  2  0
 13 16  2  0
 13 17  1  0
 14 15  1  0
 16 18  1  0
 17 19  2  0
 18 20  2  0
 19 20  1  0
  3 22  1  0
  4 23  1  0
 12 24  1  0
 15 25  1  0
 16 26  1  0
 17 27  1  0
 18 28  1  0
 19 29  1  0
 20 30  1  0
 21 31  1  0
 21 32  1  0
 21 33  1  0
M  END
>  <BioMolTech Lead Finder dG>
-6.195

>  <BioMolTech Lead Finder VSscore>
-7.281

>  <BioMolTech Lead Finder Rank score>
-9.418

>  <BioMolTech Lead Finder LE>
-0.295

>  <BioMolTech Lead Finder Structure Name>
/var/folders/xd/y7jw_xv579q2qqq7kks92xd80000gn/T/LeadFinder_58627_1/Ligand_1.sdf

>  <BioMolTech Lead Finder SDF id>
0

>  <BioMolTech Lead Finder Pose rank>
0

>  <BioMolTech Lead Finder version>
2001 1, 19 January 2019

>  <PUBCHEM_COMPOUND_CID>
5281703

>  <PUBCHEM_COMPOUND_CANONICALIZED>
1

>  <PUBCHEM_CACTVS_COMPLEXITY>
426

>  <PUBCHEM_CACTVS_HBOND_ACCEPTOR>
5

>  <PUBCHEM_CACTVS_HBOND_DONOR>
2

>  <PUBCHEM_CACTVS_ROTATABLE_BOND>
2

>  <PUBCHEM_CACTVS_SUBSKEYS>
AAADccB4OAAAAAAAAAAAAAAAAAAAAAAAAAAwYIAAAAAAAACBQAAAGgAACAAADASAmAIyBoAABgCIAqBSAAACCAAkIAAIiAEGiMgNJzaGNRqCeWOl4BULuQfK7LzOIQABCAAIQABCAAIQABCAAAAAAAAAAA==

>  <PUBCHEM_IUPAC_OPENEYE_NAME>
5,7-dihydroxy-8-methoxy-2-phenyl-chromen-4-one

>  <PUBCHEM_IUPAC_CAS_NAME>
5,7-dihydroxy-8-methoxy-2-phenyl-1-benzopyran-4-one

>  <PUBCHEM_IUPAC_NAME_MARKUP>
5,7-dihydroxy-8-methoxy-2-phenylchromen-4-one

>  <PUBCHEM_IUPAC_NAME>
5,7-dihydroxy-8-methoxy-2-phenylchromen-4-one

>  <PUBCHEM_IUPAC_SYSTEMATIC_NAME>
8-methoxy-5,7-bis(oxidanyl)-2-phenyl-chromen-4-one

>  <PUBCHEM_IUPAC_TRADITIONAL_NAME>
5,7-dihydroxy-8-methoxy-2-phenyl-chromone

>  <PUBCHEM_IUPAC_INCHI>
InChI=1S/C16H12O5/c1-20-15-12(19)7-10(17)14-11(18)8-13(21-16(14)15)9-5-3-2-4-6-9/h2-8,17,19H,1H3

>  <PUBCHEM_IUPAC_INCHIKEY>
XLTFNNCXVBYBSX-UHFFFAOYSA-N

>  <PUBCHEM_XLOGP3_AA>
3

>  <PUBCHEM_EXACT_MASS>
284.068473

>  <PUBCHEM_MOLECULAR_FORMULA>
C16H12O5

>  <PUBCHEM_MOLECULAR_WEIGHT>
284.26

>  <PUBCHEM_OPENEYE_CAN_SMILES>
COC1=C(C=C(C2=C1OC(=CC2=O)C3=CC=CC=C3)O)O

>  <PUBCHEM_OPENEYE_ISO_SMILES>
COC1=C(C=C(C2=C1OC(=CC2=O)C3=CC=CC=C3)O)O

>  <PUBCHEM_CACTVS_TPSA>
76

>  <PUBCHEM_MONOISOTOPIC_WEIGHT>
284.068473

>  <PUBCHEM_TOTAL_CHARGE>
0

>  <PUBCHEM_HEAVY_ATOM_COUNT>
21

>  <PUBCHEM_ATOM_DEF_STEREO_COUNT>
0

>  <PUBCHEM_ATOM_UDEF_STEREO_COUNT>
0

>  <PUBCHEM_BOND_DEF_STEREO_COUNT>
0

>  <PUBCHEM_BOND_UDEF_STEREO_COUNT>
0

>  <PUBCHEM_ISOTOPIC_ATOM_COUNT>
0

>  <PUBCHEM_COMPONENT_COUNT>
1

>  <PUBCHEM_CACTVS_TAUTO_COUNT>
-1

>  <PUBCHEM_COORDINATE_TYPE>
1
5
255

>  <PUBCHEM_BONDANNOTATIONS>
1  7  8
1  8  8
10  12  8
11  15  8
13  16  8
13  17  8
14  15  8
16  18  8
17  19  8
18  20  8
19  20  8
6  10  8
6  11  8
6  7  8
7  9  8
8  12  8
9  14  8

>  <LF dG>
-6.195

>  <LF VSscore>
-7.281

>  <LF Rank Score>
-9.418

>  <LF LE>
-0.295

>  <Preferred Pose_cresset>
true

>  <Favorite_cresset>
false

>  <Protein_cresset>
6M2N_Monomer_P

>  <MW_cresset>
284.3

>  <#Atoms_cresset>
21

>  <SlogP_cresset>
2.6

>  <TPSA_cresset>
76

>  <Flexibility_cresset>
1.7

>  <#RB_cresset>
4

>  <Rof5_cresset>
0

>  <Filename_cresset>
Wogonin.sdf

>  <Confs_cresset>
0

>  <Poses_cresset>
10

>  <_cresset_fieldpoints>
    -5     -50.790333      -4.961704      18.821236     -6.3782
    -5     -47.363186      -3.304778      19.024031     -6.0785
    -5     -50.115883      -0.335699      13.010254    -10.3850
    -5     -47.680744       0.871326      12.706742     -9.2783
    -5     -43.016804       0.777060      15.752718     -2.5181
    -6     -51.303406      -7.187966      13.912579      7.2878
    -6     -48.432434      -3.631268      11.394695      2.8948
    -6     -45.321526      -4.270797      15.240726      3.9745
    -6     -46.006001       2.615444      19.402782      2.5469
    -6     -42.174385       1.705329      20.573704      2.8632
    -6     -40.209366      -1.744750      19.069000      3.0723
    -6     -42.344364      -4.378265      16.358429      3.4368
    -7     -50.737144      -4.083332      11.153002     -1.2462
    -7     -47.172951      -2.788244      11.891382     -1.7787
    -7     -50.571846      -0.091545      13.110928     -1.6977
    -7     -53.222824      -5.923013      15.718596     -1.2712
    -7     -47.117931      -5.717761      14.094928     -2.2188
    -7     -45.523853      -4.830559      15.936765     -2.8267
    -7     -45.458633      -3.864233      14.547329     -2.6977
    -7     -48.800064      -0.197773      17.428905     -2.5892
    -7     -46.635826      -3.583680      19.061707     -3.0578
    -7     -46.290413       2.936202      18.974834     -0.9902
    -7     -43.726067       0.650174      15.011553     -2.0485
    -7     -47.671532      -6.655268      14.073477     -1.8699
    -7     -42.204399       1.910789      20.832882     -0.9672
    -7     -39.950089      -1.680021      19.237236     -0.9671
    -7     -49.021416      -7.621431      14.603127     -1.7417
    -7     -51.104019      -1.607683      17.095661     -1.8428
    -7     -51.140106      -6.228130      18.637863     -1.7608
    -8     -47.666100      -1.987005      15.331783      4.9768
    -8     -49.366371      -3.701394      15.323084      6.5972
    -8     -44.208778      -0.905471      17.916246      7.1501
    -8     -47.540962      -7.050801      17.538837      2.5135

$$$$
W_VTRRT_D
  xed2sdf_05210316543D
 
 92 97  0  0  1  0  0  0  0  0999 V2000
  -56.7892   -1.2128    7.0317 C   0  0  0  0  0  0  0  0  0  0  0  0
  -56.8772   -0.0858    7.8167 C   0  0  0  0  0  0  0  0  0  0  0  0
  -56.4532   -0.1178    9.1277 C   0  0  0  0  0  0  0  0  0  0  0  0
  -55.9382   -1.2848    9.6467 C   0  0  0  0  0  0  0  0  0  0  0  0
  -55.8502   -2.4128    8.8617 C   0  0  0  0  0  0  0  0  0  0  0  0
  -56.2761   -2.3768    7.5547 C   0  0  0  0  0  0  0  0  0  0  0  0
  -56.5582    1.1272    9.9947 C   0  0  0  0  0  0  0  0  0  0  0  0
  -55.3562    2.0942    9.9007 C   0  0  0  0  0  0  0  0  0  0  0  0
  -54.4672    1.6542    8.7697 N   0  3  0  0  0  0  0  0  0  0  0  0
  -54.6031    2.1212   11.2517 C   0  0  0  0  0  0  0  0  0  0  0  0
  -55.4981    2.6132   12.2647 O   0  0  0  0  0  0  0  0  0  0  0  0
  -53.3391    3.0092   11.1737 C   0  0  0  0  0  0  0  0  0  0  0  0
  -52.7502    3.3392   12.5657 C   0  0  0  0  0  0  0  0  0  0  0  0
  -51.8922    4.6212   12.4757 C   0  0  0  0  0  0  0  0  0  0  0  0
  -52.4052    5.8312   13.2417 C   0  0  0  0  0  0  0  0  0  0  0  0
  -53.6522    5.7972   13.8247 C   0  0  0  0  0  0  0  0  0  0  0  0
  -54.1142    6.8822   14.5347 C   0  0  0  0  0  0  0  0  0  0  0  0
  -53.3321    8.0072   14.6617 C   0  0  0  0  0  0  0  0  0  0  0  0
  -52.0852    8.0452   14.0797 C   0  0  0  0  0  0  0  0  0  0  0  0
  -51.6242    6.9582   13.3737 C   0  0  0  0  0  0  0  0  0  0  0  0
  -51.9492    2.2322   13.1167 N   0  0  0  0  0  0  0  0  0  0  0  0
  -52.4221    1.7742   14.4737 P   0  0  0  0  0  0  0  0  0  0  0  0
  -51.3601    0.7612   15.1357 O   0  0  0  0  0  0  0  0  0  0  0  0
  -52.4522    3.0052   15.5147 O   0  0  0  0  0  0  0  0  0  0  0  0
  -53.7682    1.1052   14.3697 O   0  0  0  0  0  0  0  0  0  0  0  0
  -50.1732    0.4302   14.3987 C   0  0  0  0  0  0  0  0  0  0  0  0
  -52.3312    2.8092   16.8607 C   0  0  0  0  0  0  0  0  0  0  0  0
  -53.4442    2.6342   17.6607 C   0  0  0  0  0  0  0  0  0  0  0  0
  -53.3022    2.4542   19.0157 C   0  0  0  0  0  0  0  0  0  0  0  0
  -52.0471    2.4482   19.5817 C   0  0  0  0  0  0  0  0  0  0  0  0
  -50.9342    2.6222   18.7907 C   0  0  0  0  0  0  0  0  0  0  0  0
  -51.0751    2.8042   17.4357 C   0  0  0  0  0  0  0  0  0  0  0  0
  -49.6161   -0.9388   14.8297 C   0  0  0  0  0  0  0  0  0  0  0  0
  -49.2372   -0.9648   16.2187 O   0  0  0  0  0  0  0  0  0  0  0  0
  -48.0372   -1.7448   16.3987 C   0  0  0  0  0  0  0  0  0  0  0  0
  -47.7092   -2.3248   15.0017 C   0  0  0  0  0  0  0  0  0  0  0  0
  -48.3582   -1.3278   14.0377 C   0  0  0  0  0  0  0  0  0  0  0  0
  -47.4832   -0.2058   13.8417 O   0  0  0  0  0  0  0  0  0  0  0  0
  -46.3062   -2.4928   14.7427 O   0  0  0  0  0  0  0  0  0  0  0  0
  -47.0372   -0.7838   17.0317 C   0  0  0  0  0  0  0  0  0  0  0  0
  -48.3132   -2.8388   17.3377 C   0  0  0  0  0  0  0  0  0  0  0  0
  -48.5261   -3.6858   18.0637 N   0  0  0  0  0  0  0  0  0  0  0  0
  -45.7752   -1.1858   17.3197 N   0  0  0  0  0  0  0  0  0  0  0  0
  -45.1682   -0.0998   17.8637 C   0  0  0  0  0  0  0  0  0  0  0  0
  -46.0142    0.9622   17.9177 C   0  0  0  0  0  0  0  0  0  0  0  0
  -47.2201    0.5092   17.3747 C   0  0  0  0  0  0  0  0  0  0  0  0
  -45.1031   -2.3648   17.1627 N   0  0  0  0  0  0  0  0  0  0  0  0
  -43.8531   -2.4108   17.5577 C   0  0  0  0  0  0  0  0  0  0  0  0
  -43.1412   -1.3828   18.1217 N   0  0  0  0  0  0  0  0  0  0  0  0
  -43.8152   -0.2338   18.2697 C   0  0  0  0  0  0  0  0  0  0  0  0
  -43.1392    0.8192   18.8357 N   0  0  0  0  0  0  0  0  0  0  0  0
  -55.6662    3.0262    9.7117 H   0  0  0  0  0  0  0  0  0  0  0  0
  -54.3032    1.1942   11.4787 H   0  0  0  0  0  0  0  0  0  0  0  0
  -53.5182    3.4832   13.1907 H   0  0  0  0  0  0  0  0  0  0  0  0
  -50.3632   -1.5788   14.6547 H   0  0  0  0  0  0  0  0  0  0  0  0
  -48.0582   -3.2568   14.9067 H   0  0  0  0  0  0  0  0  0  0  0  0
  -48.5541   -1.6768   13.1207 H   0  0  0  0  0  0  0  0  0  0  0  0
  -57.0982   -1.1848    6.0807 H   0  0  0  0  0  0  0  0  0  0  0  0
  -57.2512    0.7592    7.4347 H   0  0  0  0  0  0  0  0  0  0  0  0
  -55.6272   -1.3138   10.5967 H   0  0  0  0  0  0  0  0  0  0  0  0
  -55.4762   -3.2588    9.2427 H   0  0  0  0  0  0  0  0  0  0  0  0
  -56.2112   -3.1958    6.9847 H   0  0  0  0  0  0  0  0  0  0  0  0
  -56.6522    0.8372   10.9477 H   0  0  0  0  0  0  0  0  0  0  0  0
  -57.3502    1.6362    9.6577 H   0  0  0  0  0  0  0  0  0  0  0  0
  -54.1721    0.8012    8.8857 H   0  0  0  0  0  0  0  0  0  0  0  0
  -54.8922    1.6702    7.9667 H   0  0  0  0  0  0  0  0  0  0  0  0
  -53.7281    2.1812    8.6927 H   0  0  0  0  0  0  0  0  0  0  0  0
  -55.5452    3.6172   12.2647 H   0  0  0  0  0  0  0  0  0  0  0  0
  -53.5751    3.8642   10.7127 H   0  0  0  0  0  0  0  0  0  0  0  0
  -52.6432    2.4982   10.6677 H   0  0  0  0  0  0  0  0  0  0  0  0
  -51.8222    4.8752   11.5107 H   0  0  0  0  0  0  0  0  0  0  0  0
  -51.0191    4.3872   12.9027 H   0  0  0  0  0  0  0  0  0  0  0  0
  -54.2232    4.9822   13.7327 H   0  0  0  0  0  0  0  0  0  0  0  0
  -55.0191    6.8522   14.9587 H   0  0  0  0  0  0  0  0  0  0  0  0
  -53.6692    8.7952   15.1757 H   0  0  0  0  0  0  0  0  0  0  0  0
  -51.5162    8.8622   14.1707 H   0  0  0  0  0  0  0  0  0  0  0  0
  -50.7162    6.9862   12.9547 H   0  0  0  0  0  0  0  0  0  0  0  0
  -50.9822    2.5642   13.2097 H   0  0  0  0  0  0  0  0  0  0  0  0
  -49.4802    1.1332   14.5597 H   0  0  0  0  0  0  0  0  0  0  0  0
  -50.4052    0.3852   13.4267 H   0  0  0  0  0  0  0  0  0  0  0  0
  -54.3572    2.6372   17.2517 H   0  0  0  0  0  0  0  0  0  0  0  0
  -54.1102    2.3282   19.5907 H   0  0  0  0  0  0  0  0  0  0  0  0
  -51.9442    2.3162   20.5677 H   0  0  0  0  0  0  0  0  0  0  0  0
  -50.0222    2.6162   19.2017 H   0  0  0  0  0  0  0  0  0  0  0  0
  -50.2652    2.9342   16.8637 H   0  0  0  0  0  0  0  0  0  0  0  0
  -46.8472   -0.3668   13.0777 H   0  0  0  0  0  0  0  0  0  0  0  0
  -46.0712   -2.2108   13.8057 H   0  0  0  0  0  0  0  0  0  0  0  0
  -45.8152    1.8752   18.2717 H   0  0  0  0  0  0  0  0  0  0  0  0
  -48.0582    1.0422   17.2617 H   0  0  0  0  0  0  0  0  0  0  0  0
  -43.3722   -3.2798   17.4357 H   0  0  0  0  0  0  0  0  0  0  0  0
  -42.3002    0.7182   19.0827 H   0  0  0  0  0  0  0  0  0  0  0  0
  -43.5392    1.5952   18.9547 H   0  0  0  0  0  0  0  0  0  0  0  0
  1  2  2  0
  2  3  1  0
  3  4  2  0
  3  7  1  0
  4  5  1  0
  5  6  2  0
  6  1  1  0
  7  8  1  0
  8  9  1  0
  8 10  1  0
 10 11  1  0
 10 12  1  0
 12 13  1  0
 13 14  1  0
 13 21  1  0
 14 15  1  0
 15 16  2  0
 16 17  1  0
 17 18  2  0
 18 19  1  0
 19 20  2  0
 20 15  1  0
 21 22  1  0
 22 23  1  0
 22 24  1  0
 22 25  2  0
 23 26  1  0
 24 27  1  0
 27 28  2  0
 28 29  1  0
 29 30  2  0
 30 31  1  0
 31 32  2  0
 32 27  1  0
 33 26  1  0
 33 34  1  0
 34 35  1  0
 35 36  1  0
 35 40  1  0
 35 41  1  0
 36 37  1  0
 36 39  1  0
 37 33  1  0
 37 38  1  0
 40 43  1  0
 41 42  3  0
 43 44  1  0
 43 47  1  0
 44 45  2  0
 45 46  1  0
 46 40  2  0
 47 48  2  0
 48 49  1  0
 49 50  2  0
 50 44  1  0
 50 51  1  0
  1 58  1  0
  2 59  1  0
  4 60  1  0
  5 61  1  0
  6 62  1  0
  7 63  1  0
  7 64  1  0
  8 52  1  0
  9 65  1  0
  9 66  1  0
  9 67  1  0
 10 53  1  0
 11 68  1  0
 12 69  1  0
 12 70  1  0
 13 54  1  0
 14 71  1  0
 14 72  1  0
 16 73  1  0
 17 74  1  0
 18 75  1  0
 19 76  1  0
 20 77  1  0
 21 78  1  0
 26 79  1  0
 26 80  1  0
 28 81  1  0
 29 82  1  0
 30 83  1  0
 31 84  1  0
 32 85  1  0
 33 55  1  0
 36 56  1  0
 37 57  1  0
 38 86  1  0
 39 87  1  0
 45 88  1  0
 46 89  1  0
 48 90  1  0
 51 91  1  0
 51 92  1  0
M  CHG  1   9   1
M  END
>  <BioMolTech Lead Finder dG>
-4.802

>  <BioMolTech Lead Finder VSscore>
-9.93

>  <BioMolTech Lead Finder Rank score>
-8.396

>  <BioMolTech Lead Finder LE>
-0.094

>  <BioMolTech Lead Finder Structure Name>
/var/folders/xd/y7jw_xv579q2qqq7kks92xd80000gn/T/LeadFinder_61399_1/Ligand_1.sdf

>  <BioMolTech Lead Finder SDF id>
0

>  <BioMolTech Lead Finder Pose rank>
0

>  <BioMolTech Lead Finder version>
2001 1, 19 January 2019

>  <LF dG>
-4.802

>  <LF VSscore>
-9.93

>  <LF Rank Score>
-8.396

>  <LF LE>
-0.094

>  <Preferred Pose_cresset>
true

>  <Favorite_cresset>
false

>  <Protein_cresset>
6M2N_Monomer_P

>  <MW_cresset>
714.7

>  <#Atoms_cresset>
51

>  <SlogP_cresset>
4

>  <TPSA_cresset>
225.1

>  <Flexibility_cresset>
17.1

>  <#RB_cresset>
18

>  <Rof5_cresset>
3

>  <Filename_cresset>
VTRRT-13V2.1.sdf

>  <Confs_cresset>
0

>  <Poses_cresset>
10

>  <_cresset_fieldpoints>
    -5     -58.978710      -2.005532       9.351733     -3.7039
    -5     -55.746639       1.455956      13.718119     -9.4036
    -5     -53.821846      -0.518152       6.929070     -1.3100
    -5     -54.034939       8.383385      11.704765     -1.5301
    -5     -52.186119       5.614765      16.522205     -8.0274
    -5     -51.168274      -0.150466      17.108608    -11.4504
    -5     -46.662048       1.198214      14.750976     -4.6352
    -5     -45.463890      -3.787962      15.809246     -9.8226
    -5     -47.464256      -4.360614      19.675770    -10.6863
    -5     -44.791115      -1.426411      15.239243     -6.7507
    -6     -55.572800       5.066266      11.272579      9.7975
    -6     -56.821701      -2.862870       4.407312      3.6475
    -6     -49.412357       2.796602      12.759201     11.1509
    -6     -56.585770       3.002205       7.216656      6.9137
    -6     -52.360580       3.942344       8.607830      8.0083
    -6     -54.863068      -5.204995       7.835145      3.5367
    -6     -56.190208       8.851639      15.810730      2.8961
    -6     -46.363861      -1.730242      12.089016     15.2941
    -6     -54.367661       2.326717      21.963066      1.3151
    -6     -56.447273       2.641203      18.850422      1.4851
    -6     -44.317863       3.375894      19.128212      9.2090
    -6     -47.733559       3.528957      18.156693      4.6294
    -7     -56.884174       3.235711       7.291236     -2.1012
    -7     -59.348236      -1.899429       9.441338     -1.8307
    -7     -56.971992      -3.296762       4.357627     -0.9687
    -7     -55.462631       3.038438      14.695945     -3.7869
    -7     -52.110992      -0.078590      11.552029     -3.2337
    -7     -50.566002      -4.105631      15.299173     -1.8849
    -7     -52.620110      -0.367358      10.555277     -2.8846
    -7     -53.501129      -0.383993       6.861401     -2.3819
    -7     -55.294167      -5.614373       7.860760     -0.9687
    -7     -54.087257       4.685933       8.328863     -1.9083
    -7     -51.870033       4.470020       8.815714     -1.7223
    -7     -57.683411       3.663390      11.677166     -2.0155
    -7     -49.996460       1.996854      11.404961     -2.8988
    -7     -51.577652       5.998525      16.785286     -3.0053
    -7     -52.287949      11.130711      15.494034     -0.9687
    -7     -55.443085       5.529602      11.105511     -2.9217
    -7     -48.273651       3.075151      15.520954     -2.6187
    -7     -49.553719       3.720310      14.694954     -3.5676
    -7     -54.024582       1.892138      22.288952     -0.9684
    -7     -55.354450      -0.367639      13.099932     -2.6685
    -7     -46.363319      -2.426073      19.897606     -2.3905
    -7     -51.208824      -0.502217      17.498074     -3.9830
    -7     -46.825394      -3.740266      12.258009     -1.3506
    -7     -46.384720      -2.121306      11.579579     -1.3305
    -7     -45.020573      -0.357277      14.543550     -3.4029
    -7     -47.036201       1.947451      14.485020     -2.6319
    -7     -44.945393       1.184548      21.140945     -1.5248
    -7     -43.390701       2.648863      16.546055     -1.5217
    -7     -45.800323      -4.573420      16.096325     -2.1845
    -7     -40.761742      -1.468794      18.845604     -1.1835
    -8     -56.361732      -1.241147       8.343483      7.1964
    -8     -54.160828       2.575321      10.579741      4.7556
    -8     -52.830887       4.807060      12.995621      5.9010
    -8     -52.866966       6.913752      13.948376      7.1966
    -8     -52.806534       4.029110      11.941880      5.3833
    -8     -53.486137       3.010555      11.583833      4.8523
    -8     -52.183479       2.622988      18.258255      7.0272
    -8     -52.425461       5.803469      13.249523      5.7401
    -8     -49.574066      -0.675639      13.985657      4.3572
    -8     -48.712296      -1.945999      14.765093      4.5969
    -8     -46.491676       0.451770      17.605846      4.9122
    -8     -48.082199      -2.529655      16.016624      3.9112
    -8     -43.203575      -3.497942      17.427013      1.2337

$$$$
VTRRT_D
  xed2sdf_05210316543D
 
 92 97  0  0  1  0  0  0  0  0999 V2000
  -44.1227    0.4884   19.7105 C   0  0  0  0  0  0  0  0  0  0  0  0
  -44.3206    0.4784   18.3485 C   0  0  0  0  0  0  0  0  0  0  0  0
  -43.9076   -0.5986   17.5945 C   0  0  0  0  0  0  0  0  0  0  0  0
  -43.2966   -1.6666   18.2145 C   0  0  0  0  0  0  0  0  0  0  0  0
  -43.0976   -1.6576   19.5765 C   0  0  0  0  0  0  0  0  0  0  0  0
  -43.5107   -0.5796   20.3245 C   0  0  0  0  0  0  0  0  0  0  0  0
  -44.1217   -0.6036   16.0885 C   0  0  0  0  0  0  0  0  0  0  0  0
  -44.3836   -1.9966   15.4695 C   0  0  0  0  0  0  0  0  0  0  0  0
  -43.8536   -2.0086   14.0615 N   0  3  0  0  0  0  0  0  0  0  0  0
  -45.8966   -2.3126   15.5215 C   0  0  0  0  0  0  0  0  0  0  0  0
  -46.2366   -3.1146   14.3775 O   0  0  0  0  0  0  0  0  0  0  0  0
  -46.7407   -1.0156   15.5395 C   0  0  0  0  0  0  0  0  0  0  0  0
  -47.6166   -0.8876   16.8095 C   0  0  0  0  0  0  0  0  0  0  0  0
  -49.0756   -1.2716   16.4735 C   0  0  0  0  0  0  0  0  0  0  0  0
  -49.3377   -2.7436   16.1935 C   0  0  0  0  0  0  0  0  0  0  0  0
  -48.8797   -3.7016   17.0695 C   0  0  0  0  0  0  0  0  0  0  0  0
  -49.1297   -5.0346   16.8315 C   0  0  0  0  0  0  0  0  0  0  0  0
  -49.8377   -5.4136   15.7145 C   0  0  0  0  0  0  0  0  0  0  0  0
  -50.2966   -4.4596   14.8355 C   0  0  0  0  0  0  0  0  0  0  0  0
  -50.0486   -3.1276   15.0775 C   0  0  0  0  0  0  0  0  0  0  0  0
  -47.5706    0.4644   17.3915 N   0  0  0  0  0  0  0  0  0  0  0  0
  -48.1227    0.5264   18.7935 P   0  0  0  0  0  0  0  0  0  0  0  0
  -49.7327    0.5234   18.7735 O   0  0  0  0  0  0  0  0  0  0  0  0
  -47.7646   -0.8166   19.6095 O   0  0  0  0  0  0  0  0  0  0  0  0
  -47.6246    1.7564   19.5065 O   0  0  0  0  0  0  0  0  0  0  0  0
  -50.4146    1.6334   18.1695 C   0  0  0  0  0  0  0  0  0  0  0  0
  -48.5867   -1.3056   20.5835 C   0  0  0  0  0  0  0  0  0  0  0  0
  -48.5646   -0.7866   21.8645 C   0  0  0  0  0  0  0  0  0  0  0  0
  -49.3896   -1.3036   22.8355 C   0  0  0  0  0  0  0  0  0  0  0  0
  -50.2426   -2.3416   22.5335 C   0  0  0  0  0  0  0  0  0  0  0  0
  -50.2687   -2.8626   21.2595 C   0  0  0  0  0  0  0  0  0  0  0  0
  -49.4426   -2.3486   20.2885 C   0  0  0  0  0  0  0  0  0  0  0  0
  -51.6836    1.1694   17.4305 C   0  0  0  0  0  0  0  0  0  0  0  0
  -51.4016    0.6964   16.0995 O   0  0  0  0  0  0  0  0  0  0  0  0
  -52.4487    1.0964   15.1925 C   0  0  0  0  0  0  0  0  0  0  0  0
  -53.5136    1.7954   16.0715 C   0  0  0  0  0  0  0  0  0  0  0  0
  -52.7096    2.3014   17.2725 C   0  0  0  0  0  0  0  0  0  0  0  0
  -52.0797    3.5494   16.9405 O   0  0  0  0  0  0  0  0  0  0  0  0
  -54.2267    2.8534   15.4125 O   0  0  0  0  0  0  0  0  0  0  0  0
  -51.7446    1.9214   14.1205 C   0  0  0  0  0  0  0  0  0  0  0  0
  -53.0266   -0.1026   14.5715 C   0  0  0  0  0  0  0  0  0  0  0  0
  -53.4736   -1.0306   14.0935 N   0  0  0  0  0  0  0  0  0  0  0  0
  -50.5756    1.5014   13.5785 N   0  0  0  0  0  0  0  0  0  0  0  0
  -50.2356    2.4584   12.6765 C   0  0  0  0  0  0  0  0  0  0  0  0
  -51.1586    3.4534   12.6415 C   0  0  0  0  0  0  0  0  0  0  0  0
  -52.1326    3.0964   13.5785 C   0  0  0  0  0  0  0  0  0  0  0  0
  -49.7896    0.4014   13.7715 N   0  0  0  0  0  0  0  0  0  0  0  0
  -48.6936    0.3024   13.0565 C   0  0  0  0  0  0  0  0  0  0  0  0
  -48.2486    1.2044   12.1235 N   0  0  0  0  0  0  0  0  0  0  0  0
  -49.0306    2.2784   11.9475 C   0  0  0  0  0  0  0  0  0  0  0  0
  -48.6186    3.2084   11.0235 N   0  0  0  0  0  0  0  0  0  0  0  0
  -43.9096   -2.7076   15.9885 H   0  0  0  0  0  0  0  0  0  0  0  0
  -46.0986   -2.8116   16.3645 H   0  0  0  0  0  0  0  0  0  0  0  0
  -47.2456   -1.5146   17.4945 H   0  0  0  0  0  0  0  0  0  0  0  0
  -52.0476    0.4314   17.9985 H   0  0  0  0  0  0  0  0  0  0  0  0
  -54.2477    1.1644   16.3205 H   0  0  0  0  0  0  0  0  0  0  0  0
  -53.2376    2.4824   18.1025 H   0  0  0  0  0  0  0  0  0  0  0  0
  -44.4236    1.2724   20.2535 H   0  0  0  0  0  0  0  0  0  0  0  0
  -44.7656    1.2554   17.9045 H   0  0  0  0  0  0  0  0  0  0  0  0
  -42.9967   -2.4516   17.6725 H   0  0  0  0  0  0  0  0  0  0  0  0
  -42.6526   -2.4346   20.0215 H   0  0  0  0  0  0  0  0  0  0  0  0
  -43.3657   -0.5716   21.3145 H   0  0  0  0  0  0  0  0  0  0  0  0
  -43.3066   -0.2176   15.6575 H   0  0  0  0  0  0  0  0  0  0  0  0
  -44.9487   -0.0666   15.9225 H   0  0  0  0  0  0  0  0  0  0  0  0
  -43.2386   -1.3506   13.9285 H   0  0  0  0  0  0  0  0  0  0  0  0
  -43.4396   -2.7906   13.8525 H   0  0  0  0  0  0  0  0  0  0  0  0
  -44.5136   -1.8816   13.4485 H   0  0  0  0  0  0  0  0  0  0  0  0
  -46.2696   -2.5686   13.5345 H   0  0  0  0  0  0  0  0  0  0  0  0
  -47.3367   -1.0096   14.7355 H   0  0  0  0  0  0  0  0  0  0  0  0
  -46.1066   -0.2436   15.5335 H   0  0  0  0  0  0  0  0  0  0  0  0
  -49.3496   -0.7516   15.6645 H   0  0  0  0  0  0  0  0  0  0  0  0
  -49.6026   -1.0596   17.2965 H   0  0  0  0  0  0  0  0  0  0  0  0
  -48.3636   -3.4286   17.8815 H   0  0  0  0  0  0  0  0  0  0  0  0
  -48.7976   -5.7266   17.4725 H   0  0  0  0  0  0  0  0  0  0  0  0
  -50.0177   -6.3826   15.5405 H   0  0  0  0  0  0  0  0  0  0  0  0
  -50.8097   -4.7336   14.0225 H   0  0  0  0  0  0  0  0  0  0  0  0
  -50.3857   -2.4356   14.4395 H   0  0  0  0  0  0  0  0  0  0  0  0
  -48.1376    1.0794   16.7965 H   0  0  0  0  0  0  0  0  0  0  0  0
  -49.8017    2.0824   17.5205 H   0  0  0  0  0  0  0  0  0  0  0  0
  -50.6856    2.2714   18.8915 H   0  0  0  0  0  0  0  0  0  0  0  0
  -47.9466   -0.0326   22.0865 H   0  0  0  0  0  0  0  0  0  0  0  0
  -49.3706   -0.9256   23.7605 H   0  0  0  0  0  0  0  0  0  0  0  0
  -50.8426   -2.7166   23.2395 H   0  0  0  0  0  0  0  0  0  0  0  0
  -50.8896   -3.6156   21.0405 H   0  0  0  0  0  0  0  0  0  0  0  0
  -49.4617   -2.7316   19.3645 H   0  0  0  0  0  0  0  0  0  0  0  0
  -52.0976    4.1874   17.7175 H   0  0  0  0  0  0  0  0  0  0  0  0
  -54.7166    2.5144   14.6025 H   0  0  0  0  0  0  0  0  0  0  0  0
  -51.1446    4.2714   12.0665 H   0  0  0  0  0  0  0  0  0  0  0  0
  -52.9586    3.6114   13.8035 H   0  0  0  0  0  0  0  0  0  0  0  0
  -48.1276   -0.5086   13.2065 H   0  0  0  0  0  0  0  0  0  0  0  0
  -47.8686    3.0814   10.5815 H   0  0  0  0  0  0  0  0  0  0  0  0
  -49.0986    3.9314   10.8725 H   0  0  0  0  0  0  0  0  0  0  0  0
  1  2  2  0
  2  3  1  0
  3  4  2  0
  3  7  1  0
  4  5  1  0
  5  6  2  0
  6  1  1  0
  7  8  1  0
  8  9  1  0
  8 10  1  0
 10 11  1  0
 10 12  1  0
 12 13  1  0
 13 14  1  0
 13 21  1  0
 14 15  1  0
 15 16  2  0
 16 17  1  0
 17 18  2  0
 18 19  1  0
 19 20  2  0
 20 15  1  0
 21 22  1  0
 22 23  1  0
 22 24  1  0
 22 25  2  0
 23 26  1  0
 24 27  1  0
 27 28  2  0
 28 29  1  0
 29 30  2  0
 30 31  1  0
 31 32  2  0
 32 27  1  0
 33 26  1  0
 33 34  1  0
 34 35  1  0
 35 36  1  0
 35 40  1  0
 35 41  1  0
 36 37  1  0
 36 39  1  0
 37 33  1  0
 37 38  1  0
 40 43  1  0
 41 42  3  0
 43 44  1  0
 43 47  1  0
 44 45  2  0
 45 46  1  0
 46 40  2  0
 47 48  2  0
 48 49  1  0
 49 50  2  0
 50 44  1  0
 50 51  1  0
  1 58  1  0
  2 59  1  0
  4 60  1  0
  5 61  1  0
  6 62  1  0
  7 63  1  0
  7 64  1  0
  8 52  1  0
  9 65  1  0
  9 66  1  0
  9 67  1  0
 10 53  1  0
 11 68  1  0
 12 69  1  0
 12 70  1  0
 13 54  1  0
 14 71  1  0
 14 72  1  0
 16 73  1  0
 17 74  1  0
 18 75  1  0
 19 76  1  0
 20 77  1  0
 21 78  1  0
 26 79  1  0
 26 80  1  0
 28 81  1  0
 29 82  1  0
 30 83  1  0
 31 84  1  0
 32 85  1  0
 33 55  1  0
 36 56  1  0
 37 57  1  0
 38 86  1  0
 39 87  1  0
 45 88  1  0
 46 89  1  0
 48 90  1  0
 51 91  1  0
 51 92  1  0
M  CHG  1   9   1
M  END
>  <BioMolTech Lead Finder dG>
-6.175

>  <BioMolTech Lead Finder VSscore>
-10.835

>  <BioMolTech Lead Finder Rank score>
-10.307

>  <BioMolTech Lead Finder LE>
-0.121

>  <BioMolTech Lead Finder Structure Name>
/var/folders/xd/y7jw_xv579q2qqq7kks92xd80000gn/T/LeadFinder_57666_1/Ligand_1.sdf

>  <BioMolTech Lead Finder SDF id>
0

>  <BioMolTech Lead Finder Pose rank>
0

>  <BioMolTech Lead Finder version>
2001 1, 19 January 2019

>  <LF dG>
-6.175

>  <LF VSscore>
-10.835

>  <LF Rank Score>
-10.307

>  <LF LE>
-0.121

>  <Preferred Pose_cresset>
true

>  <Favorite_cresset>
false

>  <Protein_cresset>
6M2N_Monomer_P

>  <MW_cresset>
714.7

>  <#Atoms_cresset>
51

>  <SlogP_cresset>
4

>  <TPSA_cresset>
225.1

>  <Flexibility_cresset>
17.1

>  <#RB_cresset>
18

>  <Rof5_cresset>
3

>  <Filename_cresset>
VTRRT-13V2.1.sdf

>  <Confs_cresset>
0

>  <Poses_cresset>
10

>  <_cresset_fieldpoints>
    -5     -46.121399      -1.799239      19.636131    -12.5569
    -5     -41.219086       0.674075      18.622028     -4.0681
    -5     -53.308975       4.486273      15.810825    -16.2825
    -5     -47.064621      -4.776555      14.673635    -16.2266
    -5     -50.983303      -0.040893      20.108652     -7.7001
    -5     -50.706837       4.104878      15.727457    -11.6809
    -5     -47.263947       0.413304      10.685169     -6.7976
    -5     -53.608009      -2.917971      13.802197    -12.9557
    -5     -46.797165       3.340847      20.193695     -6.6153
    -6     -42.280796       0.292767      13.621567      5.8162
    -6     -46.058922       0.905691      22.735579      1.8735
    -6     -48.355938       2.589447      15.959056      6.3214
    -6     -48.178825       4.948898       9.537291     10.1233
    -6     -46.026688      -1.156996      12.469092     13.0841
    -6     -42.732155      -0.933558      23.283260      1.9190
    -6     -41.861897      -3.689222      14.770714      4.4876
    -6     -46.261581      -3.866192      18.471268      1.6039
    -6     -54.392578       0.188725      18.363094      5.5857
    -6     -48.493217      -7.261329      18.847504      1.8751
    -6     -48.523468      -5.852997      19.643482      1.9049
    -6     -52.172478       4.043485      19.586445     11.0281
    -6     -50.179588       5.474820      10.535547     11.2438
    -6     -48.505226       0.586401      25.009857      2.2569
    -6     -52.402142      -4.487802      22.881483      2.0774
    -6     -55.131409       1.598264      13.198637     10.3641
    -7     -46.477100       1.833259      21.584379     -2.4798
    -7     -40.877602       0.800561      18.157829     -1.8610
    -7     -49.587105       2.240427      21.297649     -2.3756
    -7     -49.917145       4.005544      15.925806     -3.1908
    -7     -48.588184       2.438066      15.448186     -4.1835
    -7     -46.352806       2.242535      16.111822     -3.4942
    -7     -41.199242      -2.104774      15.567791     -2.2454
    -7     -46.672882      -5.341831      14.582556     -2.4990
    -7     -45.279480       0.531023      13.164253     -2.9379
    -7     -48.099773      -2.994165      12.580563     -2.6979
    -7     -42.966938      -1.914659      11.379602     -0.9573
    -7     -44.858829      -4.991680      14.070587     -1.8476
    -7     -51.419861      -7.319158      13.387779     -0.9707
    -7     -51.920532      -2.097533      18.054111     -3.8470
    -7     -52.172951       4.020866      20.033686     -1.4851
    -7     -51.705143       0.260578      20.672516     -3.2685
    -7     -50.990051      -1.776116      25.795666     -0.9683
    -7     -46.201599      -2.956516      19.087715     -4.8726
    -7     -52.627884      -4.753650      22.786560     -0.9760
    -7     -53.455742       5.138923      15.812296     -2.3541
    -7     -56.091698       0.790805      14.227036     -1.5700
    -7     -54.898277       1.590711      12.544636     -1.9446
    -7     -51.278763      -1.378596      12.343356     -2.6965
    -7     -48.410507       5.461003      12.907900     -1.5261
    -7     -50.971992       3.016102       9.268106     -1.5184
    -8     -43.713306      -0.590286      18.954226      7.2072
    -8     -49.437454      -1.839261      21.581730      7.0356
    -8     -44.004250      -1.369652      16.785011      5.9325
    -8     -45.332314      -1.268822      15.940269      6.1626
    -8     -46.574699      -1.434766      16.141094      5.5451
    -8     -52.900902       1.368993      16.869514      4.6025
    -8     -51.752106       1.783283      18.058140      4.3363
    -8     -49.445450       0.984455      18.306568      2.0496
    -8     -49.584808      -4.072495      15.957889      7.2137
    -8     -51.490921       3.006447      13.178934      4.9140
    -8     -52.614727       2.038898      14.467134      4.2972
    -8     -48.517082      -2.118865      16.674347      5.8788

$$$$
