Untitled
  xed2sdf_05210316543D
 
 30 32  0  0  0  0  0  0  0  0999 V2000
  -51.5085    3.1389   12.8216 O   0  0  0  0  0  0  0  0  0  0  0  0
  -47.4365    0.6179   12.1006 O   0  0  0  0  0  0  0  0  0  0  0  0
  -48.3395   -1.2551   13.8286 O   0  0  0  0  0  0  0  0  0  0  0  0
  -50.7895   -0.9621   15.0336 O   0  0  0  0  0  0  0  0  0  0  0  0
  -47.9885    2.9649   10.8466 O   0  0  0  0  0  0  0  0  0  0  0  0
  -49.4425    1.9279   12.3996 C   0  0  0  0  0  0  0  0  0  0  0  0
  -50.6845    2.0729   13.0266 C   0  0  0  0  0  0  0  0  0  0  0  0
  -51.0915    4.1369   11.9776 C   0  0  0  0  0  0  0  0  0  0  0  0
  -48.6555    0.7979   12.6796 C   0  0  0  0  0  0  0  0  0  0  0  0
  -49.0425    2.9799   11.4816 C   0  0  0  0  0  0  0  0  0  0  0  0
  -49.9055    4.0899   11.3046 C   0  0  0  0  0  0  0  0  0  0  0  0
  -52.0075    5.2969   11.8226 C   0  0  0  0  0  0  0  0  0  0  0  0
  -51.1175    1.0949   13.9026 C   0  0  0  0  0  0  0  0  0  0  0  0
  -49.1085   -0.1571   13.5566 C   0  0  0  0  0  0  0  0  0  0  0  0
  -50.3455   -0.0121   14.1706 C   0  0  0  0  0  0  0  0  0  0  0  0
  -52.9885    5.3609   10.8416 C   0  0  0  0  0  0  0  0  0  0  0  0
  -51.8785    6.3709   12.6906 C   0  0  0  0  0  0  0  0  0  0  0  0
  -53.8075    6.4589   10.7366 C   0  0  0  0  0  0  0  0  0  0  0  0
  -52.6975    7.4689   12.5856 C   0  0  0  0  0  0  0  0  0  0  0  0
  -53.6645    7.5149   11.6076 C   0  0  0  0  0  0  0  0  0  0  0  0
  -47.2265   -0.3501   11.9506 H   0  0  0  0  0  0  0  0  0  0  0  0
  -47.6255   -1.3851   13.1316 H   0  0  0  0  0  0  0  0  0  0  0  0
  -50.7305   -1.8821   14.6296 H   0  0  0  0  0  0  0  0  0  0  0  0
  -49.6475    4.8339   10.6886 H   0  0  0  0  0  0  0  0  0  0  0  0
  -52.0055    1.1939   14.3496 H   0  0  0  0  0  0  0  0  0  0  0  0
  -53.0995    4.5989   10.2036 H   0  0  0  0  0  0  0  0  0  0  0  0
  -51.1785    6.3459   13.4036 H   0  0  0  0  0  0  0  0  0  0  0  0
  -54.5095    6.4909   10.0256 H   0  0  0  0  0  0  0  0  0  0  0  0
  -52.5915    8.2339   13.2196 H   0  0  0  0  0  0  0  0  0  0  0  0
  -54.2615    8.3139   11.5296 H   0  0  0  0  0  0  0  0  0  0  0  0
  1  7  1  0
  1  8  1  0
  2  9  1  0
  3 14  1  0
  4 15  1  0
  5 10  2  0
  6  7  2  0
  6  9  1  0
  6 10  1  0
  7 13  1  0
  8 11  2  0
  8 12  1  0
  9 14  2  0
 10 11  1  0
 12 16  2  0
 12 17  1  0
 13 15  2  0
 14 15  1  0
 16 18  1  0
 17 19  2  0
 18 20  2  0
 19 20  1  0
  2 21  1  0
  3 22  1  0
  4 23  1  0
 11 24  1  0
 13 25  1  0
 16 26  1  0
 17 27  1  0
 18 28  1  0
 19 29  1  0
 20 30  1  0
M  END
>  <BioMolTech Lead Finder dG>
-4.756

>  <BioMolTech Lead Finder VSscore>
-6.373

>  <BioMolTech Lead Finder Rank score>
-9.04

>  <BioMolTech Lead Finder LE>
-0.238

>  <BioMolTech Lead Finder Structure Name>
/var/folders/xd/y7jw_xv579q2qqq7kks92xd80000gn/T/LeadFinder_58626_1/Ligand_1.sdf

>  <BioMolTech Lead Finder SDF id>
0

>  <BioMolTech Lead Finder Pose rank>
0

>  <BioMolTech Lead Finder version>
2001 1, 19 January 2019

>  <PUBCHEM_COMPOUND_CID>
5281605

>  <PUBCHEM_COMPOUND_CANONICALIZED>
1

>  <PUBCHEM_CACTVS_COMPLEXITY>
413

>  <PUBCHEM_CACTVS_HBOND_ACCEPTOR>
5

>  <PUBCHEM_CACTVS_HBOND_DONOR>
3

>  <PUBCHEM_CACTVS_ROTATABLE_BOND>
1

>  <PUBCHEM_CACTVS_SUBSKEYS>
AAADccBwOAAAAAAAAAAAAAAAAAAAAAAAAAAwYIAAAAAAAACBQAAAGgAACAAADASAmAAwBoAABgCIAqBSAAACCAAkIAAIiAEGiMgNJzaGNRqCeWGl4BUJuQfK7LzOIQABCAAIQABCAAIQABCAAAAAAAAAAA==

>  <PUBCHEM_IUPAC_OPENEYE_NAME>
5,6,7-trihydroxy-2-phenyl-chromen-4-one

>  <PUBCHEM_IUPAC_CAS_NAME>
5,6,7-trihydroxy-2-phenyl-1-benzopyran-4-one

>  <PUBCHEM_IUPAC_NAME_MARKUP>
5,6,7-trihydroxy-2-phenylchromen-4-one

>  <PUBCHEM_IUPAC_NAME>
5,6,7-trihydroxy-2-phenylchromen-4-one

>  <PUBCHEM_IUPAC_SYSTEMATIC_NAME>
5,6,7-tris(oxidanyl)-2-phenyl-chromen-4-one

>  <PUBCHEM_IUPAC_TRADITIONAL_NAME>
5,6,7-trihydroxy-2-phenyl-chromone

>  <PUBCHEM_IUPAC_INCHI>
InChI=1S/C15H10O5/c16-9-6-11(8-4-2-1-3-5-8)20-12-7-10(17)14(18)15(19)13(9)12/h1-7,17-19H

>  <PUBCHEM_IUPAC_INCHIKEY>
FXNFHKRTJBSTCS-UHFFFAOYSA-N

>  <PUBCHEM_XLOGP3>
1.7

>  <PUBCHEM_EXACT_MASS>
270.052823

>  <PUBCHEM_MOLECULAR_FORMULA>
C15H10O5

>  <PUBCHEM_MOLECULAR_WEIGHT>
270.24

>  <PUBCHEM_OPENEYE_CAN_SMILES>
C1=CC=C(C=C1)C2=CC(=O)C3=C(O2)C=C(C(=C3O)O)O

>  <PUBCHEM_OPENEYE_ISO_SMILES>
C1=CC=C(C=C1)C2=CC(=O)C3=C(O2)C=C(C(=C3O)O)O

>  <PUBCHEM_CACTVS_TPSA>
87

>  <PUBCHEM_MONOISOTOPIC_WEIGHT>
270.052823

>  <PUBCHEM_TOTAL_CHARGE>
0

>  <PUBCHEM_HEAVY_ATOM_COUNT>
20

>  <PUBCHEM_ATOM_DEF_STEREO_COUNT>
0

>  <PUBCHEM_ATOM_UDEF_STEREO_COUNT>
0

>  <PUBCHEM_BOND_DEF_STEREO_COUNT>
0

>  <PUBCHEM_BOND_UDEF_STEREO_COUNT>
0

>  <PUBCHEM_ISOTOPIC_ATOM_COUNT>
0

>  <PUBCHEM_COMPONENT_COUNT>
1

>  <PUBCHEM_CACTVS_TAUTO_COUNT>
-1

>  <PUBCHEM_COORDINATE_TYPE>
1
5
255

>  <PUBCHEM_BONDANNOTATIONS>
1  7  8
1  8  8
10  11  8
12  16  8
12  17  8
13  15  8
14  15  8
16  18  8
17  19  8
18  20  8
19  20  8
6  10  8
6  7  8
6  9  8
7  13  8
8  11  8
9  14  8

>  <LF dG>
-4.756

>  <LF VSscore>
-6.373

>  <LF Rank Score>
-9.04

>  <LF LE>
-0.238

>  <Preferred Pose_cresset>
true

>  <Favorite_cresset>
false

>  <Protein_cresset>
6M2N_Monomer_P

>  <MW_cresset>
270.2

>  <#Atoms_cresset>
20

>  <SlogP_cresset>
2.3

>  <TPSA_cresset>
87

>  <Flexibility_cresset>
1.7

>  <#RB_cresset>
4

>  <Rof5_cresset>
0

>  <Filename_cresset>
Baicalein.sdf

>  <Confs_cresset>
0

>  <Poses_cresset>
10

>  <_cresset_fieldpoints>
    -5     -53.569618       3.775567      13.818574     -3.2663
    -5     -46.376518       2.022899      11.011936    -12.8877
    -5     -54.601501       4.986880      13.627121     -3.3613
    -5     -47.014610       4.069980       9.688662    -10.9936
    -5     -49.825821      -0.536115      16.895798     -4.9341
    -5     -50.964287       7.839395       9.866693     -2.9156
    -6     -52.499199       2.467561       9.928551      2.4437
    -6     -51.073750       8.444142      14.981228      2.5143
    -6     -50.745979      -3.305264      13.570883      5.4947
    -6     -54.877068       4.683304       8.446745      2.9271
    -6     -46.939362      -2.064173      11.706813     10.7369
    -6     -56.034027       8.411759       9.763820      2.9184
    -6     -54.121696      10.246225      13.008675      2.8159
    -7     -51.894943       2.184802       9.895258     -2.5806
    -7     -49.205376       4.836537      14.222937     -2.6299
    -7     -45.691139      -0.287866      13.752968     -1.4844
    -7     -46.021103       2.750141      12.448736     -1.6405
    -7     -49.380417      -3.428914      13.473958     -1.3407
    -7     -48.388309      -2.164074      11.021297     -1.3896
    -7     -48.885502      -2.581835      15.869556     -1.3999
    -7     -53.165047      -1.625005      14.783369     -1.2173
    -7     -47.557606       0.773314       9.607811     -1.7192
    -7     -48.513306       2.872271      15.531985     -1.8202
    -7     -51.306839      -0.365867      10.681822     -1.8131
    -7     -53.652710       3.493305      13.965506     -2.4526
    -7     -54.745956       4.561001       8.069378     -0.9866
    -7     -56.260323       8.549037       9.667727     -0.9674
    -7     -54.113060      10.498804      13.170930     -0.9670
    -7     -50.606339       8.290714      15.155720     -0.9932
    -7     -50.317635       7.274489       9.753990     -2.0582
    -8     -52.836479       6.411383      11.713664      7.1509
    -8     -49.910622       0.984693      13.276213      6.5997
    -8     -49.971615       3.022141      12.027378      5.0057

$$$$
Untitled
  xed2sdf_05210316543D
 
 49 52  0  0  1  0  0  0  0  0999 V2000
  -52.2673   -2.4829   15.2255 O   0  0  0  0  0  0  0  0  0  0  0  0
  -50.1413   -1.2709   15.4065 O   0  0  0  0  0  0  0  0  0  0  0  0
  -50.2523   -6.0959   15.9945 O   0  0  0  0  0  0  0  0  0  0  0  0
  -48.7733   -3.6689   15.6165 O   0  0  0  0  0  0  0  0  0  0  0  0
  -52.9243   -6.1289   14.9005 O   0  0  0  0  0  0  0  0  0  0  0  0
  -54.7753   -3.3949   16.1645 O   0  5  0  0  0  0  0  0  0  0  0  0
  -55.1303   -3.8219   13.9495 O   0  0  0  0  0  0  0  0  0  0  0  0
  -51.6583    2.6701   13.2775 O   0  0  0  0  0  0  0  0  0  0  0  0
  -47.9013   -1.3339   13.8375 O   0  0  0  0  0  0  0  0  0  0  0  0
  -47.5293    0.5981   11.9515 O   0  0  0  0  0  0  0  0  0  0  0  0
  -48.4343    2.7101   10.8275 O   0  0  0  0  0  0  0  0  0  0  0  0
  -50.8053   -4.9799   15.2825 C   0  0  0  0  0  0  0  0  0  0  0  0
  -50.1983   -3.6609   15.7955 C   0  0  0  0  0  0  0  0  0  0  0  0
  -52.3343   -4.9419   15.4515 C   0  0  0  0  0  0  0  0  0  0  0  0
  -50.8343   -2.4829   15.0315 C   0  0  0  0  0  0  0  0  0  0  0  0
  -52.8913   -3.6919   14.7415 C   0  0  0  0  0  0  0  0  0  0  0  0
  -54.3803   -3.6319   14.9705 C   0  0  0  0  0  0  0  0  0  0  0  0
  -49.9783   -0.3249   14.4805 C   0  0  0  0  0  0  0  0  0  0  0  0
  -50.9043    0.6881   14.3165 C   0  0  0  0  0  0  0  0  0  0  0  0
  -48.8353   -0.3459   13.6855 C   0  0  0  0  0  0  0  0  0  0  0  0
  -50.7193    1.6871   13.3765 C   0  0  0  0  0  0  0  0  0  0  0  0
  -49.5783    1.6471   12.5745 C   0  0  0  0  0  0  0  0  0  0  0  0
  -48.6393    0.6241   12.7355 C   0  0  0  0  0  0  0  0  0  0  0  0
  -49.3993    2.6941   11.5925 C   0  0  0  0  0  0  0  0  0  0  0  0
  -51.4473    3.6851   12.3735 C   0  0  0  0  0  0  0  0  0  0  0  0
  -50.3703    3.7231   11.5335 C   0  0  0  0  0  0  0  0  0  0  0  0
  -52.4613    4.7721   12.3445 C   0  0  0  0  0  0  0  0  0  0  0  0
  -53.5423    4.6551   11.4835 C   0  0  0  0  0  0  0  0  0  0  0  0
  -52.3803    5.9031   13.1475 C   0  0  0  0  0  0  0  0  0  0  0  0
  -54.5093    5.6301   11.4265 C   0  0  0  0  0  0  0  0  0  0  0  0
  -53.3473    6.8771   13.0895 C   0  0  0  0  0  0  0  0  0  0  0  0
  -54.4143    6.7441   12.2295 C   0  0  0  0  0  0  0  0  0  0  0  0
  -50.5843   -5.0859   14.3135 H   0  0  0  0  0  0  0  0  0  0  0  0
  -50.3873   -3.5619   16.7725 H   0  0  0  0  0  0  0  0  0  0  0  0
  -52.5593   -4.9009   16.4245 H   0  0  0  0  0  0  0  0  0  0  0  0
  -50.7243   -2.5649   14.0405 H   0  0  0  0  0  0  0  0  0  0  0  0
  -52.6913   -3.7609   13.7645 H   0  0  0  0  0  0  0  0  0  0  0  0
  -50.6493   -6.9649   15.6805 H   0  0  0  0  0  0  0  0  0  0  0  0
  -48.5013   -4.2889   14.8725 H   0  0  0  0  0  0  0  0  0  0  0  0
  -52.2953   -6.9119   14.9595 H   0  0  0  0  0  0  0  0  0  0  0  0
  -47.2653   -1.3719   13.0595 H   0  0  0  0  0  0  0  0  0  0  0  0
  -47.2263   -0.3449   11.7755 H   0  0  0  0  0  0  0  0  0  0  0  0
  -51.7243    0.7001   14.8895 H   0  0  0  0  0  0  0  0  0  0  0  0
  -50.2693    4.4741   10.8805 H   0  0  0  0  0  0  0  0  0  0  0  0
  -53.6193    3.8501   10.8955 H   0  0  0  0  0  0  0  0  0  0  0  0
  -51.6093    6.0091   13.7745 H   0  0  0  0  0  0  0  0  0  0  0  0
  -55.2823    5.5301   10.8005 H   0  0  0  0  0  0  0  0  0  0  0  0
  -53.2763    7.6861   13.6735 H   0  0  0  0  0  0  0  0  0  0  0  0
  -55.1173    7.4531   12.1885 H   0  0  0  0  0  0  0  0  0  0  0  0
  1 15  1  0
  1 16  1  0
  2 18  1  0
  6 17  1  0
  7 17  2  0
  8 21  1  0
  8 25  1  0
  9 20  1  0
 10 23  1  0
 11 24  2  0
 12  3  1  0
 12 13  1  0
 12 14  1  0
 13  4  1  0
 13 15  1  0
 14  5  1  0
 14 16  1  0
 15  2  1  0
 16 17  1  0
 18 19  2  0
 18 20  1  0
 19 21  1  0
 20 23  2  0
 21 22  2  0
 22 23  1  0
 22 24  1  0
 24 26  1  0
 25 26  2  0
 25 27  1  0
 27 28  2  0
 27 29  1  0
 28 30  1  0
 29 31  2  0
 30 32  2  0
 31 32  1  0
  3 38  1  0
  4 39  1  0
  5 40  1  0
  9 41  1  0
 10 42  1  0
 12 33  1  0
 13 34  1  0
 14 35  1  0
 15 36  1  0
 16 37  1  0
 19 43  1  0
 26 44  1  0
 28 45  1  0
 29 46  1  0
 30 47  1  0
 31 48  1  0
 32 49  1  0
M  CHG  1   6  -1
M  END
>  <BioMolTech Lead Finder dG>
-4.749

>  <BioMolTech Lead Finder VSscore>
-9.281

>  <BioMolTech Lead Finder Rank score>
-10.295

>  <BioMolTech Lead Finder LE>
-0.148

>  <BioMolTech Lead Finder Structure Name>
/var/folders/xd/y7jw_xv579q2qqq7kks92xd80000gn/T/LeadFinder_58627_1/Ligand_1.sdf

>  <BioMolTech Lead Finder SDF id>
0

>  <BioMolTech Lead Finder Pose rank>
0

>  <BioMolTech Lead Finder version>
2001 1, 19 January 2019

>  <PUBCHEM_COMPOUND_CID>
64982

>  <PUBCHEM_COMPOUND_CANONICALIZED>
1

>  <PUBCHEM_CACTVS_COMPLEXITY>
748

>  <PUBCHEM_CACTVS_HBOND_ACCEPTOR>
11

>  <PUBCHEM_CACTVS_HBOND_DONOR>
6

>  <PUBCHEM_CACTVS_ROTATABLE_BOND>
4

>  <PUBCHEM_CACTVS_SUBSKEYS>
AAADceB4PAAAAAAAAAAAAAAAAAAAAAAAAAA0YIEAAAAAAACBQAAAGgAACAAADBSwmAMwDoAABgCIAqDSCAICCAAkIAAIiAFGiMgdNzaGNR6ieWOl4BUPuQfK7LzOIQABCAAIQABCAAIQABCAAAAAAAAAAA==

>  <PUBCHEM_IUPAC_OPENEYE_NAME>
(2S,3S,4S,5R,6S)-6-(5,6-dihydroxy-4-oxo-2-phenyl-chromen-7-yl)oxy-3,4,5-trihydroxy-tetrahydropyran-2-carboxylic acid

>  <PUBCHEM_IUPAC_CAS_NAME>
(2S,3S,4S,5R,6S)-6-[(5,6-dihydroxy-4-oxo-2-phenyl-1-benzopyran-7-yl)oxy]-3,4,5-trihydroxy-2-oxanecarboxylic acid

>  <PUBCHEM_IUPAC_NAME_MARKUP>
(2<I>S</I>,3<I>S</I>,4<I>S</I>,5<I>R</I>,6<I>S</I>)-6-(5,6-dihydroxy-4-oxo-2-phenylchromen-7-yl)oxy-3,4,5-trihydroxyoxane-2-carboxylic acid

>  <PUBCHEM_IUPAC_NAME>
(2S,3S,4S,5R,6S)-6-(5,6-dihydroxy-4-oxo-2-phenylchromen-7-yl)oxy-3,4,5-trihydroxyoxane-2-carboxylic acid

>  <PUBCHEM_IUPAC_SYSTEMATIC_NAME>
(2S,3S,4S,5R,6S)-6-[5,6-bis(oxidanyl)-4-oxidanylidene-2-phenyl-chromen-7-yl]oxy-3,4,5-tris(oxidanyl)oxane-2-carboxylic acid

>  <PUBCHEM_IUPAC_TRADITIONAL_NAME>
(2S,3S,4S,5R,6S)-6-(5,6-dihydroxy-4-keto-2-phenyl-chromen-7-yl)oxy-3,4,5-trihydroxy-tetrahydropyran-2-carboxylic acid

>  <PUBCHEM_IUPAC_INCHI>
InChI=1S/C21H18O11/c22-9-6-10(8-4-2-1-3-5-8)30-11-7-12(14(23)15(24)13(9)11)31-21-18(27)16(25)17(26)19(32-21)20(28)29/h1-7,16-19,21,23-27H,(H,28,29)/t16-,17-,18+,19-,21+/m0/s1

>  <PUBCHEM_IUPAC_INCHIKEY>
IKIIZLYTISPENI-ZFORQUDYSA-N

>  <PUBCHEM_XLOGP3_AA>
1.1

>  <PUBCHEM_EXACT_MASS>
446.084911

>  <PUBCHEM_MOLECULAR_FORMULA>
C21H18O11

>  <PUBCHEM_MOLECULAR_WEIGHT>
446.4

>  <PUBCHEM_OPENEYE_CAN_SMILES>
C1=CC=C(C=C1)C2=CC(=O)C3=C(C(=C(C=C3O2)OC4C(C(C(C(O4)C(=O)O)O)O)O)O)O

>  <PUBCHEM_OPENEYE_ISO_SMILES>
C1=CC=C(C=C1)C2=CC(=O)C3=C(C(=C(C=C3O2)O[C@H]4[C@@H]([C@H]([C@@H]([C@H](O4)C(=O)O)O)O)O)O)O

>  <PUBCHEM_CACTVS_TPSA>
183

>  <PUBCHEM_MONOISOTOPIC_WEIGHT>
446.084911

>  <PUBCHEM_TOTAL_CHARGE>
0

>  <PUBCHEM_HEAVY_ATOM_COUNT>
32

>  <PUBCHEM_ATOM_DEF_STEREO_COUNT>
5

>  <PUBCHEM_ATOM_UDEF_STEREO_COUNT>
0

>  <PUBCHEM_BOND_DEF_STEREO_COUNT>
0

>  <PUBCHEM_BOND_UDEF_STEREO_COUNT>
0

>  <PUBCHEM_ISOTOPIC_ATOM_COUNT>
0

>  <PUBCHEM_COMPONENT_COUNT>
1

>  <PUBCHEM_CACTVS_TAUTO_COUNT>
-1

>  <PUBCHEM_COORDINATE_TYPE>
1
5
255

>  <PUBCHEM_BONDANNOTATIONS>
16  17  5
18  19  8
18  20  8
19  21  8
15  2  5
20  23  8
21  22  8
22  23  8
22  24  8
24  26  8
25  26  8
27  28  8
27  29  8
28  30  8
29  31  8
12  3  5
30  32  8
31  32  8
13  4  6
14  5  6
8  21  8
8  25  8

>  <LF dG>
-4.749

>  <LF VSscore>
-9.281

>  <LF Rank Score>
-10.295

>  <LF LE>
-0.148

>  <Preferred Pose_cresset>
true

>  <Favorite_cresset>
false

>  <Protein_cresset>
6M2N_Monomer_P

>  <MW_cresset>
445.4

>  <#Atoms_cresset>
32

>  <SlogP_cresset>
1.1

>  <TPSA_cresset>
186

>  <Flexibility_cresset>
7.6

>  <#RB_cresset>
9

>  <Rof5_cresset>
1

>  <Filename_cresset>
Baicalin.sdf

>  <Confs_cresset>
0

>  <Poses_cresset>
10

>  <_cresset_fieldpoints>
    -5     -53.325829      -2.312395      17.178989     -9.7345
    -5     -47.875542      -2.097228      16.130186    -14.1606
    -5     -56.599903      -3.392412      16.059574    -11.0340
    -5     -54.766369      -6.315321      14.431074     -7.6715
    -5     -56.829285      -3.680812      14.653100    -10.7705
    -5     -53.651905       3.040583      14.477020     -5.0893
    -5     -46.662216       2.080854      10.849823    -13.5260
    -5     -54.667313       4.031945      14.439804     -5.0078
    -5     -47.716000       3.865933       9.548157    -11.8389
    -5     -51.995430       7.311336      10.183153     -3.7184
    -6     -50.981236      -7.779071      14.204531     12.7976
    -6     -48.848709      -4.463705      13.051389      8.8611
    -6     -46.950523      -2.072966      11.501480     10.2075
    -6     -57.007103       7.346850      10.607991      1.9393
    -6     -55.514046       3.739681       9.214437      1.7817
    -6     -52.756966       1.841536      10.472808      1.3799
    -6     -51.608337       8.327641      15.139765      1.5446
    -6     -55.027084       9.517048      13.492872      1.9027
    -7     -52.112671      -1.532886      12.118660     -2.6604
    -7     -52.828957      -2.335246      17.620876     -2.5154
    -7     -52.336349      -6.196985      12.497250     -1.7949
    -7     -52.021046      -7.448880      17.392643     -1.5247
    -7     -47.446732      -1.848191      16.273949     -2.2924
    -7     -50.872246      -5.827828      18.388340     -1.6238
    -7     -47.875778      -5.861043      16.497305     -1.5477
    -7     -52.321915       1.588889      10.434904     -2.6086
    -7     -54.247688      -5.983829      12.884224     -1.7369
    -7     -55.292782      -6.330365      14.297918     -1.5277
    -7     -53.233604      -0.767087      16.418045     -2.4528
    -7     -53.709404       2.777636      14.599110     -2.4634
    -7     -48.641014      -3.484573      12.779672     -2.7757
    -7     -45.433228      -0.003335      13.314676     -1.4898
    -7     -46.313721       2.887655      12.227067     -1.6575
    -7     -48.126526       0.544421       9.517615     -1.7394
    -7     -48.290516       2.685012      15.574762     -1.8592
    -7     -55.549164       3.360824       9.094252     -0.9920
    -7     -49.386246       4.621083      14.329937     -2.6203
    -7     -51.307381       7.983314      15.585670     -0.9872
    -7     -57.304405       7.354781      10.552379     -0.9671
    -7     -51.299191       6.802134       9.986048     -2.0537
    -7     -55.081879       9.730713      13.707668     -0.9672
    -8     -49.801781       0.687926      13.519865      6.6097
    -8     -51.360260      -4.059077      15.157333      5.1686
    -8     -50.242538       2.676805      12.272635      5.0242
    -8     -53.439835       5.764157      12.284733      7.1497

$$$$
Untitled
  xed2sdf_05210316543D
 
 62 64  0  0  1  0  0  0  0  0999 V2000
  -49.5230   -0.7622   15.6574 O   0  0  0  0  0  0  0  0  0  0  0  0
  -46.4950   -0.0032   16.4574 O   0  0  0  0  0  0  0  0  0  0  0  0
  -46.0760   -0.7982   18.7024 O   0  0  0  0  0  0  0  0  0  0  0  0
  -47.0650   -3.0922   14.0964 O   0  0  0  0  0  0  0  0  0  0  0  0
  -51.8550   -1.0552   16.1894 O   0  0  0  0  0  0  0  0  0  0  0  0
  -49.5690   -4.3042   13.4154 O   0  0  0  0  0  0  0  0  0  0  0  0
  -51.7680   -3.6802   15.1894 O   0  0  0  0  0  0  0  0  0  0  0  0
  -45.1990   -3.3202   17.4084 O   0  0  0  0  0  0  0  0  0  0  0  0
  -42.7260   -2.2712   16.6904 O   0  0  0  0  0  0  0  0  0  0  0  0
  -42.4080   -0.2322   18.7114 O   0  0  0  0  0  0  0  0  0  0  0  0
  -48.3060    1.0398   12.2904 O   0  0  0  0  0  0  0  0  0  0  0  0
  -49.0800    3.4078   11.1194 O   0  0  0  0  0  0  0  0  0  0  0  0
  -48.2500   -1.4122   15.4634 C   0  0  0  0  0  0  0  0  0  0  0  0
  -48.3140   -2.4062   14.2824 C   0  0  0  0  0  0  0  0  0  0  0  0
  -49.4280   -3.4342   14.5474 C   0  0  0  0  0  0  0  0  0  0  0  0
  -50.7630   -2.7212   14.8294 C   0  0  0  0  0  0  0  0  0  0  0  0
  -45.1490   -2.0292   16.7854 C   0  0  0  0  0  0  0  0  0  0  0  0
  -46.2940   -1.1422   17.3164 C   0  0  0  0  0  0  0  0  0  0  0  0
  -43.7820   -1.3652   17.0454 C   0  0  0  0  0  0  0  0  0  0  0  0
  -43.6400   -0.9452   18.5224 C   0  0  0  0  0  0  0  0  0  0  0  0
  -50.5860   -1.6942   15.9644 C   0  0  0  0  0  0  0  0  0  0  0  0
  -47.1530   -0.3592   15.2264 C   0  0  0  0  0  0  0  0  0  0  0  0
  -44.8490   -0.0722   18.9124 C   0  0  0  0  0  0  0  0  0  0  0  0
  -44.7420    0.3418   20.3884 C   0  0  0  0  0  0  0  0  0  0  0  0
  -51.7720    0.3738   16.0774 C   0  0  0  0  0  0  0  0  0  0  0  0
  -52.4960    0.8408   14.8034 C   0  0  0  0  0  0  0  0  0  0  0  0
  -51.5740    1.5218   13.8074 C   0  0  0  0  0  0  0  0  0  0  0  0
  -50.3510    0.9658   13.4964 C   0  0  0  0  0  0  0  0  0  0  0  0
  -51.9590    2.7038   13.2144 C   0  0  0  0  0  0  0  0  0  0  0  0
  -49.5150    1.5908   12.5974 C   0  0  0  0  0  0  0  0  0  0  0  0
  -51.1270    3.3338   12.3154 C   0  0  0  0  0  0  0  0  0  0  0  0
  -49.9040    2.7818   12.0054 C   0  0  0  0  0  0  0  0  0  0  0  0
  -48.0270   -1.9302   16.2894 H   0  0  0  0  0  0  0  0  0  0  0  0
  -48.5060   -1.8872   13.4484 H   0  0  0  0  0  0  0  0  0  0  0  0
  -49.1790   -3.9762   15.3504 H   0  0  0  0  0  0  0  0  0  0  0  0
  -51.0530   -2.2422   14.0004 H   0  0  0  0  0  0  0  0  0  0  0  0
  -45.2630   -2.1382   15.7974 H   0  0  0  0  0  0  0  0  0  0  0  0
  -47.1510   -1.6572   17.2954 H   0  0  0  0  0  0  0  0  0  0  0  0
  -43.7200   -0.5422   16.4804 H   0  0  0  0  0  0  0  0  0  0  0  0
  -43.6220   -1.7552   19.1084 H   0  0  0  0  0  0  0  0  0  0  0  0
  -50.3060   -2.1462   16.8114 H   0  0  0  0  0  0  0  0  0  0  0  0
  -44.8510    0.7468   18.3384 H   0  0  0  0  0  0  0  0  0  0  0  0
  -46.6010   -2.7912   13.2564 H   0  0  0  0  0  0  0  0  0  0  0  0
  -48.7250   -4.8242   13.2454 H   0  0  0  0  0  0  0  0  0  0  0  0
  -51.4900   -4.6132   14.9374 H   0  0  0  0  0  0  0  0  0  0  0  0
  -44.6020   -3.9782   16.9374 H   0  0  0  0  0  0  0  0  0  0  0  0
  -43.0910   -3.1652   16.4104 H   0  0  0  0  0  0  0  0  0  0  0  0
  -41.6140   -0.8072   18.4844 H   0  0  0  0  0  0  0  0  0  0  0  0
  -48.4110    0.2068   11.7364 H   0  0  0  0  0  0  0  0  0  0  0  0
  -49.3420    3.2078   10.1684 H   0  0  0  0  0  0  0  0  0  0  0  0
  -46.4770   -0.7272   14.5884 H   0  0  0  0  0  0  0  0  0  0  0  0
  -47.5820    0.4618   14.8484 H   0  0  0  0  0  0  0  0  0  0  0  0
  -43.9070   -0.0472   20.7764 H   0  0  0  0  0  0  0  0  0  0  0  0
  -44.7130    1.3398   20.4574 H   0  0  0  0  0  0  0  0  0  0  0  0
  -45.5370    0.0038   20.8914 H   0  0  0  0  0  0  0  0  0  0  0  0
  -50.8120    0.6488   16.0364 H   0  0  0  0  0  0  0  0  0  0  0  0
  -52.2070    0.7918   16.8744 H   0  0  0  0  0  0  0  0  0  0  0  0
  -53.2170    1.4828   15.0634 H   0  0  0  0  0  0  0  0  0  0  0  0
  -52.8650    0.0268   14.3554 H   0  0  0  0  0  0  0  0  0  0  0  0
  -50.0710    0.1058   13.9234 H   0  0  0  0  0  0  0  0  0  0  0  0
  -52.8470    3.1068   13.4374 H   0  0  0  0  0  0  0  0  0  0  0  0
  -51.4110    4.1918   11.8884 H   0  0  0  0  0  0  0  0  0  0  0  0
  1 13  1  0
  1 21  1  0
  2 22  1  0
  3 18  1  0
  3 23  1  0
  5 25  1  0
 11 30  1  0
 12 32  1  0
 13 14  1  0
 13 22  1  0
 14  4  1  0
 14 15  1  0
 15  6  1  0
 15 16  1  0
 16  7  1  0
 16 21  1  0
 17  8  1  0
 17 18  1  0
 17 19  1  0
 18  2  1  0
 19  9  1  0
 19 20  1  0
 20 10  1  0
 20 23  1  0
 21  5  1  0
 23 24  1  0
 25 26  1  0
 26 27  1  0
 27 28  2  0
 27 29  1  0
 28 30  1  0
 29 31  2  0
 30 32  2  0
 31 32  1  0
  4 43  1  0
  6 44  1  0
  7 45  1  0
  8 46  1  0
  9 47  1  0
 10 48  1  0
 11 49  1  0
 12 50  1  0
 13 33  1  0
 14 34  1  0
 15 35  1  0
 16 36  1  0
 17 37  1  0
 18 38  1  0
 19 39  1  0
 20 40  1  0
 21 41  1  0
 22 51  1  0
 22 52  1  0
 23 42  1  0
 24 53  1  0
 24 54  1  0
 24 55  1  0
 25 56  1  0
 25 57  1  0
 26 58  1  0
 26 59  1  0
 28 60  1  0
 29 61  1  0
 31 62  1  0
M  END
>  <BioMolTech Lead Finder dG>
-5.283

>  <BioMolTech Lead Finder VSscore>
-11.038

>  <BioMolTech Lead Finder Rank score>
-7.733

>  <BioMolTech Lead Finder LE>
-0.165

>  <BioMolTech Lead Finder Structure Name>
/var/folders/xd/y7jw_xv579q2qqq7kks92xd80000gn/T/LeadFinder_58629_1/Ligand_1.sdf

>  <BioMolTech Lead Finder SDF id>
0

>  <BioMolTech Lead Finder Pose rank>
0

>  <BioMolTech Lead Finder version>
2001 1, 19 January 2019

>  <PUBCHEM_COMPOUND_CID>
69634125

>  <PUBCHEM_COMPOUND_CANONICALIZED>
1

>  <PUBCHEM_CACTVS_COMPLEXITY>
581

>  <PUBCHEM_CACTVS_HBOND_ACCEPTOR>
12

>  <PUBCHEM_CACTVS_HBOND_DONOR>
8

>  <PUBCHEM_CACTVS_ROTATABLE_BOND>
7

>  <PUBCHEM_CACTVS_SUBSKEYS>
AAADceB4PAAAAAAAAAAAAAAAAAAAAAAAAAA0SIAAAAAAAAABAAAAGgAACAAADBSwmAMyDoAABgCAAiBCAAACAAAgIAAIiAAGiIgZNiKCERKicAElwBEPmAfA4LwOIAABAAAAQABAAAIAAACAAAAAAAAAAA==

>  <PUBCHEM_IUPAC_OPENEYE_NAME>
(2R,3R,4R,5R,6S)-2-[[(2R,3S,4S,5R,6R)-6-[2-(3,4-dihydroxyphenyl)ethoxy]-3,4,5-trihydroxy-tetrahydropyran-2-yl]methoxy]-6-methyl-tetrahydropyran-3,4,5-triol

>  <PUBCHEM_IUPAC_CAS_NAME>
(2R,3R,4R,5R,6S)-2-[[(2R,3S,4S,5R,6R)-6-[2-(3,4-dihydroxyphenyl)ethoxy]-3,4,5-trihydroxy-2-oxanyl]methoxy]-6-methyloxane-3,4,5-triol

>  <PUBCHEM_IUPAC_NAME_MARKUP>
(2<I>R</I>,3<I>R</I>,4<I>R</I>,5<I>R</I>,6<I>S</I>)-2-[[(2<I>R</I>,3<I>S</I>,4<I>S</I>,5<I>R</I>,6<I>R</I>)-6-[2-(3,4-dihydroxyphenyl)ethoxy]-3,4,5-trihydroxyoxan-2-yl]methoxy]-6-methyloxane-3,4,5-tri

>  <PUBCHEM_IUPAC_NAME>
(2R,3R,4R,5R,6S)-2-[[(2R,3S,4S,5R,6R)-6-[2-(3,4-dihydroxyphenyl)ethoxy]-3,4,5-trihydroxyoxan-2-yl]methoxy]-6-methyloxane-3,4,5-triol

>  <PUBCHEM_IUPAC_SYSTEMATIC_NAME>
(2R,3R,4R,5R,6S)-2-[[(2R,3S,4S,5R,6R)-6-[2-[3,4-bis(oxidanyl)phenyl]ethoxy]-3,4,5-tris(oxidanyl)oxan-2-yl]methoxy]-6-methyl-oxane-3,4,5-triol

>  <PUBCHEM_IUPAC_TRADITIONAL_NAME>
(2R,3R,4R,5R,6S)-2-[[(2R,3S,4S,5R,6R)-6-[2-(3,4-dihydroxyphenyl)ethoxy]-3,4,5-trihydroxy-tetrahydropyran-2-yl]methoxy]-6-methyl-tetrahydropyran-3,4,5-triol

>  <PUBCHEM_IUPAC_INCHI>
InChI=1S/C20H30O12/c1-8-13(23)15(25)17(27)20(31-8)30-7-12-14(24)16(26)18(28)19(32-12)29-5-4-9-2-3-10(21)11(22)6-9/h2-3,6,8,12-28H,4-5,7H2,1H3/t8-,12+,13-,14+,15+,16-,17+,18+,19+,20+/m0/s1

>  <PUBCHEM_IUPAC_INCHIKEY>
QIMGUQIHCNDUKU-OJJLXHDHSA-N

>  <PUBCHEM_XLOGP3_AA>
-2.5

>  <PUBCHEM_EXACT_MASS>
462.173726

>  <PUBCHEM_MOLECULAR_FORMULA>
C20H30O12

>  <PUBCHEM_MOLECULAR_WEIGHT>
462.4

>  <PUBCHEM_OPENEYE_CAN_SMILES>
CC1C(C(C(C(O1)OCC2C(C(C(C(O2)OCCC3=CC(=C(C=C3)O)O)O)O)O)O)O)O

>  <PUBCHEM_OPENEYE_ISO_SMILES>
C[C@H]1[C@@H]([C@H]([C@H]([C@@H](O1)OC[C@@H]2[C@H]([C@@H]([C@H]([C@@H](O2)OCCC3=CC(=C(C=C3)O)O)O)O)O)O)O)O

>  <PUBCHEM_CACTVS_TPSA>
199

>  <PUBCHEM_MONOISOTOPIC_WEIGHT>
462.173726

>  <PUBCHEM_TOTAL_CHARGE>
0

>  <PUBCHEM_HEAVY_ATOM_COUNT>
32

>  <PUBCHEM_ATOM_DEF_STEREO_COUNT>
10

>  <PUBCHEM_ATOM_UDEF_STEREO_COUNT>
0

>  <PUBCHEM_BOND_DEF_STEREO_COUNT>
0

>  <PUBCHEM_BOND_UDEF_STEREO_COUNT>
0

>  <PUBCHEM_ISOTOPIC_ATOM_COUNT>
0

>  <PUBCHEM_COMPONENT_COUNT>
1

>  <PUBCHEM_CACTVS_TAUTO_COUNT>
-1

>  <PUBCHEM_COORDINATE_TYPE>
1
5
255

>  <PUBCHEM_BONDANNOTATIONS>
20  10  5
13  22  5
18  2  5
23  24  6
27  28  8
27  29  8
28  30  8
29  31  8
30  32  8
31  32  8
14  4  6
21  5  5
15  6  5
16  7  6
17  8  6
19  9  6

>  <LF dG>
-5.283

>  <LF VSscore>
-11.038

>  <LF Rank Score>
-7.733

>  <LF LE>
-0.165

>  <Preferred Pose_cresset>
true

>  <Favorite_cresset>
false

>  <Protein_cresset>
6M2N_Monomer_P

>  <MW_cresset>
462.4

>  <#Atoms_cresset>
32

>  <SlogP_cresset>
-0.4

>  <TPSA_cresset>
198.8

>  <Flexibility_cresset>
15.9

>  <#RB_cresset>
15

>  <Rof5_cresset>
2

>  <Filename_cresset>
Forsythoside E.sdf

>  <Confs_cresset>
0

>  <Poses_cresset>
10

>  <_cresset_fieldpoints>
    -5     -47.335297       1.511971      17.538311     -8.7794
    -5     -42.178860       1.545821      19.026150     -9.7158
    -5     -53.247616      -2.638377      16.011473    -13.2555
    -5     -51.087261      -4.365317      12.277521     -4.2444
    -5     -41.135078      -1.512683      16.014036     -3.9018
    -5     -48.952682       3.123100      15.151667     -7.6168
    -5     -46.050831      -2.736586      19.564058     -9.0431
    -5     -52.958054       0.257698      11.496657     -2.8299
    -6     -43.888344      -4.325206      15.379059     14.2098
    -6     -40.628830      -2.259563      18.935478      3.1020
    -6     -49.598030       2.266418       8.690907      5.9578
    -6     -46.882782      -1.561502      11.960303     13.5813
    -6     -48.681690      -3.855423      17.480520      3.5014
    -6     -54.903236       3.299600      14.151686      1.5261
    -6     -53.538803       5.140851      11.600208      1.8621
    -7     -44.843594       1.722376      15.962229     -2.4566
    -7     -45.859333      -3.056608      19.882845     -2.5089
    -7     -46.796738      -4.600195      16.143475     -2.8645
    -7     -44.529922      -1.880470      13.438803     -2.0351
    -7     -53.872055      -2.209188      15.386824     -2.2107
    -7     -50.336563      -6.468554      14.188564     -1.3706
    -7     -50.873222      -4.804452      17.298653     -1.7699
    -7     -51.814754      -4.776090      12.610275     -1.5166
    -7     -52.219070      -1.250922      11.986872     -2.3574
    -7     -43.004631      -4.227460      18.491783     -1.9714
    -7     -41.421883      -0.844806      20.854649     -1.5514
    -7     -47.380936       1.732054      10.057213     -1.5413
    -7     -46.487682      -0.770370      12.035927     -2.3523
    -7     -49.846775       5.521422      10.021721     -1.2571
    -7     -47.216011      -4.431026      16.855549     -2.8395
    -7     -48.906216       0.659672      17.802166     -3.0804
    -7     -42.578682       1.866492      17.392185     -1.8102
    -7     -48.902328       2.261474      16.155739     -2.9172
    -7     -50.246788      -1.657096      11.588324     -2.7059
    -7     -53.709877       5.533756      12.690336     -0.9995
    -8     -49.406853      -2.455475      15.047712      5.2195
    -8     -50.790932       2.143325      12.943075      6.9408
    -8     -47.739868      -1.257067      14.704370      4.3946
    -8     -44.558922      -0.968222      17.644760      4.8362
    -8     -44.303440      -0.158449      19.593832      4.4512
    -8     -51.458656       0.931098      14.527077      5.6636

$$$$
Untitled
  xed2sdf_05210316543D
 
 94 97  0  0  1  0  0  0  0  0999 V2000
  -50.1304   -3.8828   14.2167 O   0  0  0  0  0  0  0  0  0  0  0  0
  -49.5394    0.2032   16.7047 O   0  0  0  0  0  0  0  0  0  0  0  0
  -53.0374    3.6722   16.7787 O   0  0  0  0  0  0  0  0  0  0  0  0
  -48.3754   -3.5388   17.9717 O   0  0  0  0  0  0  0  0  0  0  0  0
  -47.9734   -6.1638   18.5377 O   0  0  0  0  0  0  0  0  0  0  0  0
  -52.6604    1.5892   17.5587 N   0  0  0  0  0  0  0  0  0  0  0  0
  -51.3554    0.6632   15.4137 N   0  0  0  0  0  0  0  0  0  0  0  0
  -48.2184   -3.9128   15.7287 N   0  0  0  0  0  0  0  0  0  0  0  0
  -54.8314    2.3872   17.1497 N   0  0  0  0  0  0  0  0  0  0  0  0
  -50.9534   -0.2618   14.3447 C   0  0  0  0  0  0  0  0  0  0  0  0
  -51.1964    1.7802   17.4947 C   0  0  0  0  0  0  0  0  0  0  0  0
  -50.8134   -1.6458   15.0127 C   0  0  0  0  0  0  0  0  0  0  0  0
  -49.6954   -2.5278   14.4167 C   0  0  0  0  0  0  0  0  0  0  0  0
  -50.5434    1.6582   18.8927 C   0  0  0  0  0  0  0  0  0  0  0  0
  -48.4824   -2.5118   15.3687 C   0  0  0  0  0  0  0  0  0  0  0  0
  -49.6404    0.2772   13.7387 C   0  0  0  0  0  0  0  0  0  0  0  0
  -50.5894    0.8002   16.5077 C   0  0  0  0  0  0  0  0  0  0  0  0
  -53.1674    0.2902   18.0357 C   0  0  0  0  0  0  0  0  0  0  0  0
  -54.5754    0.4312   18.6217 C   0  0  0  0  0  0  0  0  0  0  0  0
  -47.2624   -1.8688   14.6757 C   0  0  0  0  0  0  0  0  0  0  0  0
  -53.4914    2.5842   17.1497 C   0  0  0  0  0  0  0  0  0  0  0  0
  -51.3514    2.4172   19.9597 C   0  0  0  0  0  0  0  0  0  0  0  0
  -49.1224    2.2462   18.8857 C   0  0  0  0  0  0  0  0  0  0  0  0
  -55.4344    1.1062   17.5487 C   0  0  0  0  0  0  0  0  0  0  0  0
  -49.7724    1.4852   12.8247 C   0  0  0  0  0  0  0  0  0  0  0  0
  -46.1384   -1.4598   15.6147 C   0  0  0  0  0  0  0  0  0  0  0  0
  -48.2644   -4.2918   17.0147 C   0  0  0  0  0  0  0  0  0  0  0  0
  -50.9294    2.2332   12.8157 C   0  0  0  0  0  0  0  0  0  0  0  0
  -48.7244    1.8472   12.0077 C   0  0  0  0  0  0  0  0  0  0  0  0
  -46.3614   -0.5228   16.5997 C   0  0  0  0  0  0  0  0  0  0  0  0
  -44.8884   -2.0258   15.4867 C   0  0  0  0  0  0  0  0  0  0  0  0
  -48.2054   -5.7928   17.1627 C   0  0  0  0  0  0  0  0  0  0  0  0
  -51.0394    3.3322   11.9947 C   0  0  0  0  0  0  0  0  0  0  0  0
  -48.8324    2.9472   11.1857 C   0  0  0  0  0  0  0  0  0  0  0  0
  -49.9904    3.6892   11.1797 C   0  0  0  0  0  0  0  0  0  0  0  0
  -45.3434   -0.1538   17.4497 C   0  0  0  0  0  0  0  0  0  0  0  0
  -43.8694   -1.6588   16.3357 C   0  0  0  0  0  0  0  0  0  0  0  0
  -44.0964   -0.7218   17.3177 C   0  0  0  0  0  0  0  0  0  0  0  0
  -48.2344   -7.4328   18.8787 C   0  0  0  0  0  0  0  0  0  0  0  0
  -49.4904   -7.8188   19.3357 C   0  0  0  0  0  0  0  0  0  0  0  0
  -47.2274   -8.3858   18.7907 C   0  0  0  0  0  0  0  0  0  0  0  0
  -49.7254   -9.1318   19.6697 C   0  0  0  0  0  0  0  0  0  0  0  0
  -47.4794   -9.6938   19.1297 C   0  0  0  0  0  0  0  0  0  0  0  0
  -50.6754   -6.8798   19.5087 C   0  0  0  0  0  0  0  0  0  0  0  0
  -45.8234   -8.0438   18.3147 C   0  0  0  0  0  0  0  0  0  0  0  0
  -48.7264  -10.0708   19.5667 C   0  0  0  0  0  0  0  0  0  0  0  0
  -51.6084   -0.3418   13.5927 H   0  0  0  0  0  0  0  0  0  0  0  0
  -51.0134    2.7082   17.1727 H   0  0  0  0  0  0  0  0  0  0  0  0
  -49.4464   -2.1548   13.5227 H   0  0  0  0  0  0  0  0  0  0  0  0
  -48.6644   -1.9658   16.1867 H   0  0  0  0  0  0  0  0  0  0  0  0
  -49.4054   -4.4458   13.8047 H   0  0  0  0  0  0  0  0  0  0  0  0
  -52.1054    1.1192   15.3357 H   0  0  0  0  0  0  0  0  0  0  0  0
  -48.0764   -4.5038   15.0917 H   0  0  0  0  0  0  0  0  0  0  0  0
  -55.3564    3.0412   16.8827 H   0  0  0  0  0  0  0  0  0  0  0  0
  -51.6824   -2.1308   14.9177 H   0  0  0  0  0  0  0  0  0  0  0  0
  -50.5674   -1.4788   15.9677 H   0  0  0  0  0  0  0  0  0  0  0  0
  -50.5214    0.6822   19.1117 H   0  0  0  0  0  0  0  0  0  0  0  0
  -49.2184   -0.4618   13.2137 H   0  0  0  0  0  0  0  0  0  0  0  0
  -49.0944    0.5892   14.5167 H   0  0  0  0  0  0  0  0  0  0  0  0
  -52.5514   -0.0648   18.7397 H   0  0  0  0  0  0  0  0  0  0  0  0
  -53.2084   -0.3398   17.2597 H   0  0  0  0  0  0  0  0  0  0  0  0
  -54.5514    0.9922   19.4497 H   0  0  0  0  0  0  0  0  0  0  0  0
  -54.9514   -0.4608   18.8727 H   0  0  0  0  0  0  0  0  0  0  0  0
  -47.5734   -1.0548   14.1857 H   0  0  0  0  0  0  0  0  0  0  0  0
  -46.8814   -2.5688   14.0707 H   0  0  0  0  0  0  0  0  0  0  0  0
  -50.7614    3.1032   20.3877 H   0  0  0  0  0  0  0  0  0  0  0  0
  -52.1364    2.8662   19.5337 H   0  0  0  0  0  0  0  0  0  0  0  0
  -51.6794    1.7752   20.6527 H   0  0  0  0  0  0  0  0  0  0  0  0
  -49.0664    2.9732   19.5707 H   0  0  0  0  0  0  0  0  0  0  0  0
  -48.4594    1.5292   19.1007 H   0  0  0  0  0  0  0  0  0  0  0  0
  -48.9154    2.6182   17.9807 H   0  0  0  0  0  0  0  0  0  0  0  0
  -55.5014    0.5072   16.7507 H   0  0  0  0  0  0  0  0  0  0  0  0
  -56.3474    1.2762   17.9197 H   0  0  0  0  0  0  0  0  0  0  0  0
  -51.6934    1.9762   13.4087 H   0  0  0  0  0  0  0  0  0  0  0  0
  -47.8814    1.3092   12.0107 H   0  0  0  0  0  0  0  0  0  0  0  0
  -47.2664   -0.1098   16.6987 H   0  0  0  0  0  0  0  0  0  0  0  0
  -44.7204   -2.7068   14.7737 H   0  0  0  0  0  0  0  0  0  0  0  0
  -49.0704   -6.1898   16.8567 H   0  0  0  0  0  0  0  0  0  0  0  0
  -47.4504   -6.1398   16.6057 H   0  0  0  0  0  0  0  0  0  0  0  0
  -51.8824    3.8712   11.9907 H   0  0  0  0  0  0  0  0  0  0  0  0
  -48.0684    3.2052   10.5937 H   0  0  0  0  0  0  0  0  0  0  0  0
  -50.0694    4.4882   10.5827 H   0  0  0  0  0  0  0  0  0  0  0  0
  -45.5094    0.5272   18.1627 H   0  0  0  0  0  0  0  0  0  0  0  0
  -42.9644   -2.0718   16.2387 H   0  0  0  0  0  0  0  0  0  0  0  0
  -43.3564   -0.4538   17.9347 H   0  0  0  0  0  0  0  0  0  0  0  0
  -50.6314   -9.4068   19.9897 H   0  0  0  0  0  0  0  0  0  0  0  0
  -46.7504  -10.3748   19.0587 H   0  0  0  0  0  0  0  0  0  0  0  0
  -51.4574   -7.4008   19.8507 H   0  0  0  0  0  0  0  0  0  0  0  0
  -50.4414   -6.1568   20.1597 H   0  0  0  0  0  0  0  0  0  0  0  0
  -50.9054   -6.4628   18.6297 H   0  0  0  0  0  0  0  0  0  0  0  0
  -45.2664   -8.8728   18.3227 H   0  0  0  0  0  0  0  0  0  0  0  0
  -45.8624   -7.6728   17.3867 H   0  0  0  0  0  0  0  0  0  0  0  0
  -45.4204   -7.3588   18.9217 H   0  0  0  0  0  0  0  0  0  0  0  0
  -48.9064  -11.0238   19.8097 H   0  0  0  0  0  0  0  0  0  0  0  0
  2 17  2  0
  3 21  2  0
  4 27  2  0
  5 32  1  0
  5 39  1  0
  6 11  1  0
  6 18  1  0
  6 21  1  0
  7 17  1  0
  8 27  1  0
  9 21  1  0
  9 24  1  0
 10  7  1  0
 10 12  1  0
 10 16  1  0
 11 14  1  0
 11 17  1  0
 12 13  1  0
 13  1  1  0
 13 15  1  0
 14 22  1  0
 14 23  1  0
 15  8  1  0
 15 20  1  0
 16 25  1  0
 18 19  1  0
 19 24  1  0
 20 26  1  0
 25 28  2  0
 25 29  1  0
 26 30  2  0
 26 31  1  0
 27 32  1  0
 28 33  1  0
 29 34  2  0
 30 36  1  0
 31 37  2  0
 33 35  2  0
 34 35  1  0
 36 38  2  0
 37 38  1  0
 39 40  2  0
 39 41  1  0
 40 42  1  0
 40 44  1  0
 41 43  2  0
 41 45  1  0
 42 46  2  0
 43 46  1  0
  1 51  1  0
  7 52  1  0
  8 53  1  0
  9 54  1  0
 10 47  1  0
 11 48  1  0
 12 55  1  0
 12 56  1  0
 13 49  1  0
 14 57  1  0
 15 50  1  0
 16 58  1  0
 16 59  1  0
 18 60  1  0
 18 61  1  0
 19 62  1  0
 19 63  1  0
 20 64  1  0
 20 65  1  0
 22 66  1  0
 22 67  1  0
 22 68  1  0
 23 69  1  0
 23 70  1  0
 23 71  1  0
 24 72  1  0
 24 73  1  0
 28 74  1  0
 29 75  1  0
 30 76  1  0
 31 77  1  0
 32 78  1  0
 32 79  1  0
 33 80  1  0
 34 81  1  0
 35 82  1  0
 36 83  1  0
 37 84  1  0
 38 85  1  0
 42 86  1  0
 43 87  1  0
 44 88  1  0
 44 89  1  0
 44 90  1  0
 45 91  1  0
 45 92  1  0
 45 93  1  0
 46 94  1  0
M  END
>  <BioMolTech Lead Finder dG>
-5.197

>  <BioMolTech Lead Finder VSscore>
-8.257

>  <BioMolTech Lead Finder Rank score>
-8.804

>  <BioMolTech Lead Finder LE>
-0.113

>  <BioMolTech Lead Finder Structure Name>
/var/folders/xd/y7jw_xv579q2qqq7kks92xd80000gn/T/LeadFinder_58626_1/Ligand_1.sdf

>  <BioMolTech Lead Finder SDF id>
0

>  <BioMolTech Lead Finder Pose rank>
0

>  <BioMolTech Lead Finder version>
2001 1, 19 January 2019

>  <PUBCHEM_COMPOUND_CID>
92727

>  <PUBCHEM_COMPOUND_CANONICALIZED>
1

>  <PUBCHEM_CACTVS_COMPLEXITY>
940

>  <PUBCHEM_CACTVS_HBOND_ACCEPTOR>
5

>  <PUBCHEM_CACTVS_HBOND_DONOR>
4

>  <PUBCHEM_CACTVS_ROTATABLE_BOND>
15

>  <PUBCHEM_CACTVS_SUBSKEYS>
AAADcfB/uAAAAAAAAAAAAAAAAAAAAAAAAAA8YMEAAAAAAAABUAAAHgAQCAAADTzhmAYzBoPABgCIAiFSEAICCAAgIAAIiIHMCIiOdjKE8T+XeCCu1hOYqAeQwPAOAAACAAAIAAAAAAQAABAAAAAAAAAAAA==

>  <PUBCHEM_IUPAC_OPENEYE_NAME>
(2S)-N-[(1S,3S,4S)-1-benzyl-4-[[2-(2,6-dimethylphenoxy)acetyl]amino]-3-hydroxy-5-phenyl-pentyl]-3-methyl-2-(2-oxohexahydropyrimidin-1-yl)butanamide

>  <PUBCHEM_IUPAC_CAS_NAME>
(2S)-N-[(2S,4S,5S)-5-[[2-(2,6-dimethylphenoxy)-1-oxoethyl]amino]-4-hydroxy-1,6-diphenylhexan-2-yl]-3-methyl-2-(2-oxo-1,3-diazinan-1-yl)butanamide

>  <PUBCHEM_IUPAC_NAME_MARKUP>
(2<I>S</I>)-<I>N</I>-[(2<I>S</I>,4<I>S</I>,5<I>S</I>)-5-[[2-(2,6-dimethylphenoxy)acetyl]amino]-4-hydroxy-1,6-diphenylhexan-2-yl]-3-methyl-2-(2-oxo-1,3-diazinan-1-yl)butanamide

>  <PUBCHEM_IUPAC_NAME>
(2S)-N-[(2S,4S,5S)-5-[[2-(2,6-dimethylphenoxy)acetyl]amino]-4-hydroxy-1,6-diphenylhexan-2-yl]-3-methyl-2-(2-oxo-1,3-diazinan-1-yl)butanamide

>  <PUBCHEM_IUPAC_SYSTEMATIC_NAME>
(2S)-N-[(2S,4S,5S)-5-[2-(2,6-dimethylphenoxy)ethanoylamino]-4-oxidanyl-1,6-diphenyl-hexan-2-yl]-3-methyl-2-(2-oxidanylidene-1,3-diazinan-1-yl)butanamide

>  <PUBCHEM_IUPAC_TRADITIONAL_NAME>
(2S)-N-[(1S,3S,4S)-1-benzyl-4-[[2-(2,6-dimethylphenoxy)acetyl]amino]-3-hydroxy-5-phenyl-pentyl]-2-(2-ketohexahydropyrimidin-1-yl)-3-methyl-butyramide

>  <PUBCHEM_IUPAC_INCHI>
InChI=1S/C37H48N4O5/c1-25(2)34(41-20-12-19-38-37(41)45)36(44)39-30(21-28-15-7-5-8-16-28)23-32(42)31(22-29-17-9-6-10-18-29)40-33(43)24-46-35-26(3)13-11-14-27(35)4/h5-11,13-18,25,30-32,34,42H,12,19-24H2

>  <PUBCHEM_IUPAC_INCHIKEY>
KJHKTHWMRKYKJE-SUGCFTRWSA-N

>  <PUBCHEM_XLOGP3_AA>
5.9

>  <PUBCHEM_EXACT_MASS>
628.362471

>  <PUBCHEM_MOLECULAR_FORMULA>
C37H48N4O5

>  <PUBCHEM_MOLECULAR_WEIGHT>
628.8

>  <PUBCHEM_OPENEYE_CAN_SMILES>
CC1=C(C(=CC=C1)C)OCC(=O)NC(CC2=CC=CC=C2)C(CC(CC3=CC=CC=C3)NC(=O)C(C(C)C)N4CCCNC4=O)O

>  <PUBCHEM_OPENEYE_ISO_SMILES>
CC1=C(C(=CC=C1)C)OCC(=O)N[C@@H](CC2=CC=CC=C2)[C@H](C[C@H](CC3=CC=CC=C3)NC(=O)[C@H](C(C)C)N4CCCNC4=O)O

>  <PUBCHEM_CACTVS_TPSA>
120

>  <PUBCHEM_MONOISOTOPIC_WEIGHT>
628.362471

>  <PUBCHEM_TOTAL_CHARGE>
0

>  <PUBCHEM_HEAVY_ATOM_COUNT>
46

>  <PUBCHEM_ATOM_DEF_STEREO_COUNT>
4

>  <PUBCHEM_ATOM_UDEF_STEREO_COUNT>
0

>  <PUBCHEM_BOND_DEF_STEREO_COUNT>
0

>  <PUBCHEM_BOND_UDEF_STEREO_COUNT>
0

>  <PUBCHEM_ISOTOPIC_ATOM_COUNT>
0

>  <PUBCHEM_COMPONENT_COUNT>
1

>  <PUBCHEM_CACTVS_TAUTO_COUNT>
-1

>  <PUBCHEM_COORDINATE_TYPE>
1
5
255

>  <PUBCHEM_BONDANNOTATIONS>
13  1  6
11  17  5
25  28  8
25  29  8
26  30  8
26  31  8
28  33  8
29  34  8
30  36  8
31  37  8
33  35  8
34  35  8
36  38  8
37  38  8
39  40  8
39  41  8
40  42  8
41  43  8
42  46  8
43  46  8
10  7  6
15  8  5

>  <LF dG>
-5.197

>  <LF VSscore>
-8.257

>  <LF Rank Score>
-8.804

>  <LF LE>
-0.113

>  <Preferred Pose_cresset>
true

>  <Favorite_cresset>
false

>  <Protein_cresset>
6M2N_Monomer_P

>  <MW_cresset>
628.8

>  <#Atoms_cresset>
46

>  <SlogP_cresset>
4.7

>  <TPSA_cresset>
120

>  <Flexibility_cresset>
16.1

>  <#RB_cresset>
16

>  <Rof5_cresset>
1

>  <Filename_cresset>
Lopinavir.sdf

>  <Confs_cresset>
0

>  <Poses_cresset>
10

>  <_cresset_fieldpoints>
    -5     -50.893272      -4.525241      15.824132     -8.2913
    -5     -48.209305      -4.040534      19.624573    -18.6296
    -5     -51.837769       4.925325      16.443119    -12.2097
    -5     -49.480858       3.753402      14.886461     -7.6137
    -5     -44.595474       1.280989      14.890841     -6.0237
    -5     -50.972942       1.077089       9.812063     -3.8849
    -5     -47.974625       2.136371      15.795862     -6.6337
    -5     -48.320694      -1.825902      18.510548    -17.2110
    -5     -49.552967      -9.721308      16.668747     -2.5441
    -6     -47.829735      -4.868468      13.137339     13.0432
    -6     -57.466255       3.073995      16.528248      4.8126
    -6     -53.765141       0.856668      14.050706      5.1649
    -6     -51.952065       5.768779       9.899593      1.3175
    -6     -48.073135       4.886799       8.835735      1.6109
    -6     -51.304893     -11.771303      20.367455      2.0631
    -6     -45.007229     -11.323002      17.964680      2.5676
    -6     -46.718021     -12.704556      19.132214      2.2169
    -6     -57.003609      -1.355420      17.597870      4.5253
    -6     -52.846725      -9.540205      20.136356      2.1408
    -7     -51.163280      -4.406875      16.751371     -3.1281
    -7     -47.708229      -4.251150      12.390929     -2.0554
    -7     -47.662766      -1.394629      11.521255     -2.7285
    -7     -51.469826       5.043064      18.059731     -2.2862
    -7     -51.276768       4.242517      15.280287     -2.7081
    -7     -48.703529      -4.190411      20.217335     -2.4356
    -7     -49.315277       0.275482      21.570826     -1.5584
    -7     -51.773365      -0.813031      20.994301     -1.8818
    -7     -51.007118      -3.741827      17.537743     -3.1234
    -7     -52.642479      -0.514829      21.239185     -1.8774
    -7     -54.596352       3.631548      19.640690     -2.4320
    -7     -54.243019       1.513186      14.434984     -2.9100
    -7     -47.916061       2.281374      15.723932     -3.8704
    -7     -45.601742      -5.118088      15.269651     -2.8646
    -7     -49.188629      -8.824919      16.033302     -2.5040
    -7     -52.285629       6.086287      10.436508     -0.9692
    -7     -48.079887       5.359102       8.918516     -0.9683
    -7     -50.703117      -1.402887      11.215120     -2.5432
    -7     -43.872261       1.218218      20.145721     -0.9938
    -7     -40.847221      -1.542217      17.883419     -0.9689
    -7     -45.704659      -3.922244      18.246181     -3.3389
    -7     -49.082825      -1.284667      18.460360     -4.3954
    -7     -46.929550     -12.977396      19.656525     -1.0014
    -7     -54.075798      -0.286994      14.792603     -3.0026
    -7     -47.548935      -7.850660      22.181587     -1.9939
    -7     -51.426369     -11.857046      20.663162     -1.0058
    -8     -49.990486      -1.086809      14.293520      6.0119
    -8     -45.122070      -1.092130      16.462717      7.1940
    -8     -54.474976       0.330339      18.021992      4.9487
    -8     -48.485664      -8.783167      19.234222      7.0734
    -8     -50.385933       0.918690      13.348541      5.6501
    -8     -49.880112       2.582813      12.005308      7.1949
    -8     -48.694759      -1.725343      14.614964      5.4655
    -8     -50.453411       2.189329      18.921921      5.9249
    -8     -47.096649      -1.440533      15.617657      5.6222
    -8     -48.345535      -5.574729      16.482178      2.8064
    -8     -49.659599      -7.919083      19.398289      5.4803
    -8     -47.174721      -8.543213      18.797182      5.4680

$$$$
Untitled
  xed2sdf_05210316543D
 
 52 55  0  0  1  0  0  0  0  0999 V2000
  -48.7512   -0.2038   16.4183 O   0  0  0  0  0  0  0  0  0  0  0  0
  -50.3362   -1.1518   14.8343 O   0  0  0  0  0  0  0  0  0  0  0  0
  -46.6122   -3.8338   16.4503 O   0  0  0  0  0  0  0  0  0  0  0  0
  -49.1372   -3.6548   15.1073 O   0  0  0  0  0  0  0  0  0  0  0  0
  -46.0902   -1.8268   18.4503 O   0  0  0  0  0  0  0  0  0  0  0  0
  -47.9072    1.6382   18.6813 O   0  5  0  0  0  0  0  0  0  0  0  0
  -46.0102    0.9452   17.6173 O   0  0  0  0  0  0  0  0  0  0  0  0
  -51.6052    2.9342   12.7833 O   0  0  0  0  0  0  0  0  0  0  0  0
  -52.1892    0.8802   14.4043 O   0  0  0  0  0  0  0  0  0  0  0  0
  -47.2882    0.9832   11.9613 O   0  0  0  0  0  0  0  0  0  0  0  0
  -48.0482    3.1722   10.8643 O   0  0  0  0  0  0  0  0  0  0  0  0
  -47.5732   -2.8218   16.7863 C   0  0  0  0  0  0  0  0  0  0  0  0
  -48.4442   -2.4838   15.5633 C   0  0  0  0  0  0  0  0  0  0  0  0
  -46.8652   -1.5458   17.2763 C   0  0  0  0  0  0  0  0  0  0  0  0
  -49.4492   -1.3818   15.9533 C   0  0  0  0  0  0  0  0  0  0  0  0
  -47.9252   -0.4658   17.5733 C   0  0  0  0  0  0  0  0  0  0  0  0
  -47.2262    0.8022   17.9903 C   0  0  0  0  0  0  0  0  0  0  0  0
  -50.0702   -0.1248   14.0213 C   0  0  0  0  0  0  0  0  0  0  0  0
  -50.9832    0.8982   13.8033 C   0  0  0  0  0  0  0  0  0  0  0  0
  -48.8282   -0.0798   13.4033 C   0  0  0  0  0  0  0  0  0  0  0  0
  -50.6722    1.9552   12.9593 C   0  0  0  0  0  0  0  0  0  0  0  0
  -49.4252    1.9792   12.3353 C   0  0  0  0  0  0  0  0  0  0  0  0
  -48.5042    0.9532   12.5663 C   0  0  0  0  0  0  0  0  0  0  0  0
  -49.1222    3.0912   11.4593 C   0  0  0  0  0  0  0  0  0  0  0  0
  -51.2932    3.9942   11.9643 C   0  0  0  0  0  0  0  0  0  0  0  0
  -50.1042    4.1012   11.3033 C   0  0  0  0  0  0  0  0  0  0  0  0
  -52.3332    5.0492   11.8273 C   0  0  0  0  0  0  0  0  0  0  0  0
  -52.2792    1.5082   15.6983 C   0  0  0  0  0  0  0  0  0  0  0  0
  -53.5252    4.9052   12.5213 C   0  0  0  0  0  0  0  0  0  0  0  0
  -52.1672    6.1782   11.0363 C   0  0  0  0  0  0  0  0  0  0  0  0
  -54.5152    5.8522   12.4313 C   0  0  0  0  0  0  0  0  0  0  0  0
  -53.1582    7.1262   10.9463 C   0  0  0  0  0  0  0  0  0  0  0  0
  -54.3342    6.9662   11.6423 C   0  0  0  0  0  0  0  0  0  0  0  0
  -48.1542   -3.1758   17.5183 H   0  0  0  0  0  0  0  0  0  0  0  0
  -47.8632   -2.1558   14.8183 H   0  0  0  0  0  0  0  0  0  0  0  0
  -46.2442   -1.2138   16.5663 H   0  0  0  0  0  0  0  0  0  0  0  0
  -50.0192   -1.6658   16.7243 H   0  0  0  0  0  0  0  0  0  0  0  0
  -48.5192   -0.7968   18.3073 H   0  0  0  0  0  0  0  0  0  0  0  0
  -46.8492   -4.2898   15.5853 H   0  0  0  0  0  0  0  0  0  0  0  0
  -48.5292   -4.2598   14.5833 H   0  0  0  0  0  0  0  0  0  0  0  0
  -45.1892   -1.3808   18.4093 H   0  0  0  0  0  0  0  0  0  0  0  0
  -46.8492    0.0782   11.9713 H   0  0  0  0  0  0  0  0  0  0  0  0
  -48.1642   -0.8078   13.5713 H   0  0  0  0  0  0  0  0  0  0  0  0
  -49.9262    4.8872   10.7113 H   0  0  0  0  0  0  0  0  0  0  0  0
  -51.3812    1.8712   15.9473 H   0  0  0  0  0  0  0  0  0  0  0  0
  -52.9462    2.2522   15.6673 H   0  0  0  0  0  0  0  0  0  0  0  0
  -52.5712    0.8362   16.3783 H   0  0  0  0  0  0  0  0  0  0  0  0
  -53.6662    4.0992   13.0963 H   0  0  0  0  0  0  0  0  0  0  0  0
  -51.3162    6.3032   10.5263 H   0  0  0  0  0  0  0  0  0  0  0  0
  -55.3692    5.7332   12.9383 H   0  0  0  0  0  0  0  0  0  0  0  0
  -53.0242    7.9342   10.3723 H   0  0  0  0  0  0  0  0  0  0  0  0
  -55.0542    7.6562   11.5763 H   0  0  0  0  0  0  0  0  0  0  0  0
  1 15  1  0
  1 16  1  0
  2 18  1  0
  6 17  1  0
  7 17  2  0
  8 21  1  0
  8 25  1  0
  9 19  1  0
  9 28  1  0
 10 23  1  0
 11 24  2  0
 12  3  1  0
 12 13  1  0
 12 14  1  0
 13  4  1  0
 13 15  1  0
 14  5  1  0
 14 16  1  0
 15  2  1  0
 16 17  1  0
 18 19  2  0
 18 20  1  0
 19 21  1  0
 20 23  2  0
 21 22  2  0
 22 23  1  0
 22 24  1  0
 24 26  1  0
 25 26  2  0
 25 27  1  0
 27 29  2  0
 27 30  1  0
 29 31  1  0
 30 32  2  0
 31 33  2  0
 32 33  1  0
  3 39  1  0
  4 40  1  0
  5 41  1  0
 10 42  1  0
 12 34  1  0
 13 35  1  0
 14 36  1  0
 15 37  1  0
 16 38  1  0
 20 43  1  0
 26 44  1  0
 28 45  1  0
 28 46  1  0
 28 47  1  0
 29 48  1  0
 30 49  1  0
 31 50  1  0
 32 51  1  0
 33 52  1  0
M  CHG  1   6  -1
M  END
>  <BioMolTech Lead Finder dG>
-5.004

>  <BioMolTech Lead Finder VSscore>
-9.327

>  <BioMolTech Lead Finder Rank score>
-9.858

>  <BioMolTech Lead Finder LE>
-0.152

>  <BioMolTech Lead Finder Structure Name>
/var/folders/xd/y7jw_xv579q2qqq7kks92xd80000gn/T/LeadFinder_58627_1/Ligand_1.sdf

>  <BioMolTech Lead Finder SDF id>
0

>  <BioMolTech Lead Finder Pose rank>
0

>  <BioMolTech Lead Finder version>
2001 1, 19 January 2019

>  <PUBCHEM_COMPOUND_CID>
3084961

>  <PUBCHEM_COMPOUND_CANONICALIZED>
1

>  <PUBCHEM_CACTVS_COMPLEXITY>
763

>  <PUBCHEM_CACTVS_HBOND_ACCEPTOR>
11

>  <PUBCHEM_CACTVS_HBOND_DONOR>
5

>  <PUBCHEM_CACTVS_ROTATABLE_BOND>
5

>  <PUBCHEM_CACTVS_SUBSKEYS>
AAADceB4PAAAAAAAAAAAAAAAAAAAAAAAAAA0YIEAAAAAAACBQAAAGgAACAAADBSwmAMyDoAABgCIAqDSCAICCAAkIAAIiAFGiMgdNzaGNR6ieWKl4BUPuQfK7LzOIQABCAAIQABCAAIQABCAAAAAAAAAAA==

>  <PUBCHEM_IUPAC_OPENEYE_NAME>
(2S,3S,4S,5R,6S)-3,4,5-trihydroxy-6-(5-hydroxy-8-methoxy-4-oxo-2-phenyl-chromen-7-yl)oxy-tetrahydropyran-2-carboxylic acid

>  <PUBCHEM_IUPAC_CAS_NAME>
(2S,3S,4S,5R,6S)-3,4,5-trihydroxy-6-[(5-hydroxy-8-methoxy-4-oxo-2-phenyl-1-benzopyran-7-yl)oxy]-2-oxanecarboxylic acid

>  <PUBCHEM_IUPAC_NAME_MARKUP>
(2<I>S</I>,3<I>S</I>,4<I>S</I>,5<I>R</I>,6<I>S</I>)-3,4,5-trihydroxy-6-(5-hydroxy-8-methoxy-4-oxo-2-phenylchromen-7-yl)oxyoxane-2-carboxylic acid

>  <PUBCHEM_IUPAC_NAME>
(2S,3S,4S,5R,6S)-3,4,5-trihydroxy-6-(5-hydroxy-8-methoxy-4-oxo-2-phenylchromen-7-yl)oxyoxane-2-carboxylic acid

>  <PUBCHEM_IUPAC_SYSTEMATIC_NAME>
(2S,3S,4S,5R,6S)-6-(8-methoxy-5-oxidanyl-4-oxidanylidene-2-phenyl-chromen-7-yl)oxy-3,4,5-tris(oxidanyl)oxane-2-carboxylic acid

>  <PUBCHEM_IUPAC_TRADITIONAL_NAME>
(2S,3S,4S,5R,6S)-3,4,5-trihydroxy-6-(5-hydroxy-4-keto-8-methoxy-2-phenyl-chromen-7-yl)oxy-tetrahydropyran-2-carboxylic acid

>  <PUBCHEM_IUPAC_INCHI>
InChI=1S/C22H20O11/c1-30-18-13(32-22-17(27)15(25)16(26)20(33-22)21(28)29)8-11(24)14-10(23)7-12(31-19(14)18)9-5-3-2-4-6-9/h2-8,15-17,20,22,24-27H,1H3,(H,28,29)/t15-,16-,17+,20-,22+/m0/s1

>  <PUBCHEM_IUPAC_INCHIKEY>
LNOHXHDWGCMVCO-NTKSAMNMSA-N

>  <PUBCHEM_XLOGP3_AA>
1.4

>  <PUBCHEM_EXACT_MASS>
460.100561

>  <PUBCHEM_MOLECULAR_FORMULA>
C22H20O11

>  <PUBCHEM_MOLECULAR_WEIGHT>
460.4

>  <PUBCHEM_OPENEYE_CAN_SMILES>
COC1=C(C=C(C2=C1OC(=CC2=O)C3=CC=CC=C3)O)OC4C(C(C(C(O4)C(=O)O)O)O)O

>  <PUBCHEM_OPENEYE_ISO_SMILES>
COC1=C(C=C(C2=C1OC(=CC2=O)C3=CC=CC=C3)O)O[C@H]4[C@@H]([C@H]([C@@H]([C@H](O4)C(=O)O)O)O)O

>  <PUBCHEM_CACTVS_TPSA>
172

>  <PUBCHEM_MONOISOTOPIC_WEIGHT>
460.100561

>  <PUBCHEM_TOTAL_CHARGE>
0

>  <PUBCHEM_HEAVY_ATOM_COUNT>
33

>  <PUBCHEM_ATOM_DEF_STEREO_COUNT>
5

>  <PUBCHEM_ATOM_UDEF_STEREO_COUNT>
0

>  <PUBCHEM_BOND_DEF_STEREO_COUNT>
0

>  <PUBCHEM_BOND_UDEF_STEREO_COUNT>
0

>  <PUBCHEM_ISOTOPIC_ATOM_COUNT>
0

>  <PUBCHEM_COMPONENT_COUNT>
1

>  <PUBCHEM_CACTVS_TAUTO_COUNT>
-1

>  <PUBCHEM_COORDINATE_TYPE>
1
5
255

>  <PUBCHEM_BONDANNOTATIONS>
16  17  5
18  19  8
18  20  8
19  21  8
15  2  5
20  23  8
21  22  8
22  23  8
22  24  8
24  26  8
25  26  8
27  29  8
27  30  8
29  31  8
12  3  5
30  32  8
31  33  8
32  33  8
13  4  6
14  5  6
8  21  8
8  25  8

>  <LF dG>
-5.004

>  <LF VSscore>
-9.327

>  <LF Rank Score>
-9.858

>  <LF LE>
-0.152

>  <Preferred Pose_cresset>
true

>  <Favorite_cresset>
false

>  <Protein_cresset>
6M2N_Monomer_P

>  <MW_cresset>
459.4

>  <#Atoms_cresset>
33

>  <SlogP_cresset>
1.4

>  <TPSA_cresset>
175

>  <Flexibility_cresset>
7.6

>  <#RB_cresset>
9

>  <Rof5_cresset>
1

>  <Filename_cresset>
Wogonoside.sdf

>  <Confs_cresset>
0

>  <Poses_cresset>
10

>  <_cresset_fieldpoints>
    -5     -51.024628      -3.475874      14.597251     -8.7869
    -5     -52.707165      -1.623885      14.371301     -7.6391
    -5     -45.636353      -3.851112      18.359821    -10.4614
    -5     -46.786098       3.063149      18.978050     -9.6889
    -5     -46.345703       2.403493      10.910282    -14.7527
    -5     -45.597530       2.651361      18.290192     -9.1943
    -5     -49.772964       1.485183      19.017807     -6.0247
    -5     -48.563606       1.952629      15.841714     -6.3083
    -5     -54.455967       4.337410       9.536847     -4.5179
    -5     -52.090736       7.343622      14.081865     -4.3492
    -6     -46.971489      -4.208146      13.812990     13.2288
    -6     -50.107971      -2.385663      18.868073      2.0777
    -6     -43.785797      -0.996399      17.410721      3.1514
    -6     -55.668671       4.101523      14.715169      1.4590
    -6     -46.480049      -1.783463      12.882456      9.3675
    -6     -50.969059       8.245750       9.100416      1.9175
    -6     -57.173805       7.576565      12.728674      1.9291
    -6     -54.799988       9.682713      10.176900      2.0291
    -7     -52.822056      -1.747201      15.581802     -2.1949
    -7     -48.560677      -5.804996      16.287796     -1.6147
    -7     -44.481743      -3.632919      17.715078     -1.5136
    -7     -49.929886      -3.253152      12.829185     -2.2831
    -7     -50.652420      -4.337375      16.982380     -1.6927
    -7     -43.948921      -0.020336      17.010548     -1.4571
    -7     -47.737015      -2.579133      20.207722     -1.6571
    -7     -46.345207      -0.658813      20.503256     -1.6222
    -7     -46.290401       0.954782      15.106161     -2.9179
    -7     -50.131466      -2.674840      19.104441     -1.7860
    -7     -50.442337       1.138412      18.280510     -2.3402
    -7     -46.187157       3.272790      12.615467     -1.6729
    -7     -48.774139       2.289501      15.946164     -3.5977
    -7     -52.117928       2.051085       9.971055     -2.4156
    -7     -53.883675       1.688578      12.290865     -2.6318
    -7     -47.507286       1.118009       9.463272     -1.6990
    -7     -51.044670      -0.568255      10.639280     -1.8900
    -7     -57.470070       7.477132      12.842363     -0.9672
    -7     -54.432709       4.260638       9.225920     -1.7838
    -7     -54.857124       9.942311      10.090796     -0.9673
    -7     -51.090050       4.481640      14.939742     -2.9843
    -7     -51.865849       7.385296      14.288296     -1.7957
    -8     -48.050636      -1.845906      16.713051      5.1847
    -8     -49.721664       0.937638      13.167471      6.6076
    -8     -52.293770       1.904054      16.482330      2.5269
    -8     -53.335861       6.011690      11.731316      7.1493
    -8     -50.061882       3.017648      11.989219      5.0134
    -8     -51.348434       5.046893      11.334484      5.4420

$$$$
Untitled
  xed2sdf_05210316543D
 
 33 35  0  0  0  0  0  0  0  0999 V2000
  -47.1979   -2.7901   16.7902 O   0  0  0  0  0  0  0  0  0  0  0  0
  -48.6749   -5.0301   17.6642 O   0  0  0  0  0  0  0  0  0  0  0  0
  -50.2139   -2.5301   13.0152 O   0  0  0  0  0  0  0  0  0  0  0  0
  -50.7519   -5.9061   16.2432 O   0  0  0  0  0  0  0  0  0  0  0  0
  -48.1949   -0.8011   13.4272 O   0  0  0  0  0  0  0  0  0  0  0  0
  -48.6829   -2.6061   14.8832 C   0  0  0  0  0  0  0  0  0  0  0  0
  -48.2699   -3.2321   16.0682 C   0  0  0  0  0  0  0  0  0  0  0  0
  -46.4919   -1.6991   16.3452 C   0  0  0  0  0  0  0  0  0  0  0  0
  -48.9749   -4.3491   16.5312 C   0  0  0  0  0  0  0  0  0  0  0  0
  -47.9289   -1.4461   14.4402 C   0  0  0  0  0  0  0  0  0  0  0  0
  -49.7849   -3.1051   14.1712 C   0  0  0  0  0  0  0  0  0  0  0  0
  -46.8209   -1.0211   15.2102 C   0  0  0  0  0  0  0  0  0  0  0  0
  -45.3259   -1.2741   17.1662 C   0  0  0  0  0  0  0  0  0  0  0  0
  -50.0569   -4.8181   15.8102 C   0  0  0  0  0  0  0  0  0  0  0  0
  -50.4559   -4.2001   14.6382 C   0  0  0  0  0  0  0  0  0  0  0  0
  -45.3389   -0.1331   17.9582 C   0  0  0  0  0  0  0  0  0  0  0  0
  -44.1689   -2.0401   17.1462 C   0  0  0  0  0  0  0  0  0  0  0  0
  -44.2389    0.2249   18.6992 C   0  0  0  0  0  0  0  0  0  0  0  0
  -43.0689   -1.6811   17.8862 C   0  0  0  0  0  0  0  0  0  0  0  0
  -43.1009   -0.5461   18.6652 C   0  0  0  0  0  0  0  0  0  0  0  0
  -47.9779   -6.2891   17.6102 C   0  0  0  0  0  0  0  0  0  0  0  0
  -49.4739   -2.4121   12.3502 H   0  0  0  0  0  0  0  0  0  0  0  0
  -50.9689   -6.5401   15.4942 H   0  0  0  0  0  0  0  0  0  0  0  0
  -46.2829   -0.2281   14.9232 H   0  0  0  0  0  0  0  0  0  0  0  0
  -51.2399   -4.5561   14.1312 H   0  0  0  0  0  0  0  0  0  0  0  0
  -46.1619    0.4349   17.9902 H   0  0  0  0  0  0  0  0  0  0  0  0
  -44.1359   -2.8671   16.5852 H   0  0  0  0  0  0  0  0  0  0  0  0
  -44.2659    1.0499   19.2642 H   0  0  0  0  0  0  0  0  0  0  0  0
  -42.2429   -2.2441   17.8592 H   0  0  0  0  0  0  0  0  0  0  0  0
  -42.2999   -0.2841   19.2032 H   0  0  0  0  0  0  0  0  0  0  0  0
  -47.7909   -6.5161   16.6542 H   0  0  0  0  0  0  0  0  0  0  0  0
  -47.1179   -6.2221   18.1152 H   0  0  0  0  0  0  0  0  0  0  0  0
  -48.5429   -7.0041   18.0222 H   0  0  0  0  0  0  0  0  0  0  0  0
  1  7  1  0
  1  8  1  0
  2  9  1  0
  2 21  1  0
  3 11  1  0
  4 14  1  0
  5 10  2  0
  6  7  2  0
  6 10  1  0
  6 11  1  0
  7  9  1  0
  8 12  2  0
  8 13  1  0
  9 14  2  0
 10 12  1  0
 11 15  2  0
 13 16  2  0
 13 17  1  0
 14 15  1  0
 16 18  1  0
 17 19  2  0
 18 20  2  0
 19 20  1  0
  3 22  1  0
  4 23  1  0
 12 24  1  0
 15 25  1  0
 16 26  1  0
 17 27  1  0
 18 28  1  0
 19 29  1  0
 20 30  1  0
 21 31  1  0
 21 32  1  0
 21 33  1  0
M  END
>  <BioMolTech Lead Finder dG>
-6.195

>  <BioMolTech Lead Finder VSscore>
-7.281

>  <BioMolTech Lead Finder Rank score>
-9.418

>  <BioMolTech Lead Finder LE>
-0.295

>  <BioMolTech Lead Finder Structure Name>
/var/folders/xd/y7jw_xv579q2qqq7kks92xd80000gn/T/LeadFinder_58627_1/Ligand_1.sdf

>  <BioMolTech Lead Finder SDF id>
0

>  <BioMolTech Lead Finder Pose rank>
0

>  <BioMolTech Lead Finder version>
2001 1, 19 January 2019

>  <PUBCHEM_COMPOUND_CID>
5281703

>  <PUBCHEM_COMPOUND_CANONICALIZED>
1

>  <PUBCHEM_CACTVS_COMPLEXITY>
426

>  <PUBCHEM_CACTVS_HBOND_ACCEPTOR>
5

>  <PUBCHEM_CACTVS_HBOND_DONOR>
2

>  <PUBCHEM_CACTVS_ROTATABLE_BOND>
2

>  <PUBCHEM_CACTVS_SUBSKEYS>
AAADccB4OAAAAAAAAAAAAAAAAAAAAAAAAAAwYIAAAAAAAACBQAAAGgAACAAADASAmAIyBoAABgCIAqBSAAACCAAkIAAIiAEGiMgNJzaGNRqCeWOl4BULuQfK7LzOIQABCAAIQABCAAIQABCAAAAAAAAAAA==

>  <PUBCHEM_IUPAC_OPENEYE_NAME>
5,7-dihydroxy-8-methoxy-2-phenyl-chromen-4-one

>  <PUBCHEM_IUPAC_CAS_NAME>
5,7-dihydroxy-8-methoxy-2-phenyl-1-benzopyran-4-one

>  <PUBCHEM_IUPAC_NAME_MARKUP>
5,7-dihydroxy-8-methoxy-2-phenylchromen-4-one

>  <PUBCHEM_IUPAC_NAME>
5,7-dihydroxy-8-methoxy-2-phenylchromen-4-one

>  <PUBCHEM_IUPAC_SYSTEMATIC_NAME>
8-methoxy-5,7-bis(oxidanyl)-2-phenyl-chromen-4-one

>  <PUBCHEM_IUPAC_TRADITIONAL_NAME>
5,7-dihydroxy-8-methoxy-2-phenyl-chromone

>  <PUBCHEM_IUPAC_INCHI>
InChI=1S/C16H12O5/c1-20-15-12(19)7-10(17)14-11(18)8-13(21-16(14)15)9-5-3-2-4-6-9/h2-8,17,19H,1H3

>  <PUBCHEM_IUPAC_INCHIKEY>
XLTFNNCXVBYBSX-UHFFFAOYSA-N

>  <PUBCHEM_XLOGP3_AA>
3

>  <PUBCHEM_EXACT_MASS>
284.068473

>  <PUBCHEM_MOLECULAR_FORMULA>
C16H12O5

>  <PUBCHEM_MOLECULAR_WEIGHT>
284.26

>  <PUBCHEM_OPENEYE_CAN_SMILES>
COC1=C(C=C(C2=C1OC(=CC2=O)C3=CC=CC=C3)O)O

>  <PUBCHEM_OPENEYE_ISO_SMILES>
COC1=C(C=C(C2=C1OC(=CC2=O)C3=CC=CC=C3)O)O

>  <PUBCHEM_CACTVS_TPSA>
76

>  <PUBCHEM_MONOISOTOPIC_WEIGHT>
284.068473

>  <PUBCHEM_TOTAL_CHARGE>
0

>  <PUBCHEM_HEAVY_ATOM_COUNT>
21

>  <PUBCHEM_ATOM_DEF_STEREO_COUNT>
0

>  <PUBCHEM_ATOM_UDEF_STEREO_COUNT>
0

>  <PUBCHEM_BOND_DEF_STEREO_COUNT>
0

>  <PUBCHEM_BOND_UDEF_STEREO_COUNT>
0

>  <PUBCHEM_ISOTOPIC_ATOM_COUNT>
0

>  <PUBCHEM_COMPONENT_COUNT>
1

>  <PUBCHEM_CACTVS_TAUTO_COUNT>
-1

>  <PUBCHEM_COORDINATE_TYPE>
1
5
255

>  <PUBCHEM_BONDANNOTATIONS>
1  7  8
1  8  8
10  12  8
11  15  8
13  16  8
13  17  8
14  15  8
16  18  8
17  19  8
18  20  8
19  20  8
6  10  8
6  11  8
6  7  8
7  9  8
8  12  8
9  14  8

>  <LF dG>
-6.195

>  <LF VSscore>
-7.281

>  <LF Rank Score>
-9.418

>  <LF LE>
-0.295

>  <Preferred Pose_cresset>
true

>  <Favorite_cresset>
false

>  <Protein_cresset>
6M2N_Monomer_P

>  <MW_cresset>
284.3

>  <#Atoms_cresset>
21

>  <SlogP_cresset>
2.6

>  <TPSA_cresset>
76

>  <Flexibility_cresset>
1.7

>  <#RB_cresset>
4

>  <Rof5_cresset>
0

>  <Filename_cresset>
Wogonin.sdf

>  <Confs_cresset>
0

>  <Poses_cresset>
10

>  <_cresset_fieldpoints>
    -5     -50.790333      -4.961704      18.821236     -6.3782
    -5     -47.363186      -3.304778      19.024031     -6.0785
    -5     -50.115883      -0.335699      13.010254    -10.3850
    -5     -47.680744       0.871326      12.706742     -9.2783
    -5     -43.016804       0.777060      15.752718     -2.5181
    -6     -51.303406      -7.187966      13.912579      7.2878
    -6     -48.432434      -3.631268      11.394695      2.8948
    -6     -45.321526      -4.270797      15.240726      3.9745
    -6     -46.006001       2.615444      19.402782      2.5469
    -6     -42.174385       1.705329      20.573704      2.8632
    -6     -40.209366      -1.744750      19.069000      3.0723
    -6     -42.344364      -4.378265      16.358429      3.4368
    -7     -50.737144      -4.083332      11.153002     -1.2462
    -7     -47.172951      -2.788244      11.891382     -1.7787
    -7     -50.571846      -0.091545      13.110928     -1.6977
    -7     -53.222824      -5.923013      15.718596     -1.2712
    -7     -47.117931      -5.717761      14.094928     -2.2188
    -7     -45.523853      -4.830559      15.936765     -2.8267
    -7     -45.458633      -3.864233      14.547329     -2.6977
    -7     -48.800064      -0.197773      17.428905     -2.5892
    -7     -46.635826      -3.583680      19.061707     -3.0578
    -7     -46.290413       2.936202      18.974834     -0.9902
    -7     -43.726067       0.650174      15.011553     -2.0485
    -7     -47.671532      -6.655268      14.073477     -1.8699
    -7     -42.204399       1.910789      20.832882     -0.9672
    -7     -39.950089      -1.680021      19.237236     -0.9671
    -7     -49.021416      -7.621431      14.603127     -1.7417
    -7     -51.104019      -1.607683      17.095661     -1.8428
    -7     -51.140106      -6.228130      18.637863     -1.7608
    -8     -47.666100      -1.987005      15.331783      4.9768
    -8     -49.366371      -3.701394      15.323084      6.5972
    -8     -44.208778      -0.905471      17.916246      7.1501
    -8     -47.540962      -7.050801      17.538837      2.5135

$$$$
