Site3d_Forsythoside_D
  xed2sdf_05210316543D
 
 62 64  0  0  1  0  0  0  0  0999 V2000
  -47.8867   -2.0688   15.7664 O   0  0  0  0  0  0  0  0  0  0  0  0
  -45.7767   -0.6158   16.5684 O   0  0  0  0  0  0  0  0  0  0  0  0
  -45.9127   -1.8708   18.5514 O   0  0  0  0  0  0  0  0  0  0  0  0
  -47.4987    0.3942   12.9974 O   0  0  0  0  0  0  0  0  0  0  0  0
  -49.8077   -3.4328   16.4054 O   0  0  0  0  0  0  0  0  0  0  0  0
  -50.3367    0.1122   13.1394 O   0  0  0  0  0  0  0  0  0  0  0  0
  -51.3297   -2.2748   14.3944 O   0  0  0  0  0  0  0  0  0  0  0  0
  -43.2587   -2.7518   18.3354 O   0  0  0  0  0  0  0  0  0  0  0  0
  -42.0937   -0.2008   18.7864 O   0  0  0  0  0  0  0  0  0  0  0  0
  -44.2607    0.8702   20.4464 O   0  0  0  0  0  0  0  0  0  0  0  0
  -54.8677   -8.4508   16.2764 O   0  0  0  0  0  0  0  0  0  0  0  0
  -56.0287   -6.8068   14.3984 O   0  0  0  0  0  0  0  0  0  0  0  0
  -47.2267   -1.3968   14.6704 C   0  0  0  0  0  0  0  0  0  0  0  0
  -48.1267   -0.2788   14.1004 C   0  0  0  0  0  0  0  0  0  0  0  0
  -49.4537   -0.9038   13.6374 C   0  0  0  0  0  0  0  0  0  0  0  0
  -50.1097   -1.6468   14.8144 C   0  0  0  0  0  0  0  0  0  0  0  0
  -43.7067   -1.5968   17.6094 C   0  0  0  0  0  0  0  0  0  0  0  0
  -45.2137   -1.7368   17.2944 C   0  0  0  0  0  0  0  0  0  0  0  0
  -43.4857   -0.3278   18.4564 C   0  0  0  0  0  0  0  0  0  0  0  0
  -44.3497   -0.3748   19.7354 C   0  0  0  0  0  0  0  0  0  0  0  0
  -49.1287   -2.6978   15.3704 C   0  0  0  0  0  0  0  0  0  0  0  0
  -45.8837   -0.8008   15.1404 C   0  0  0  0  0  0  0  0  0  0  0  0
  -45.8187   -0.6838   19.3684 C   0  0  0  0  0  0  0  0  0  0  0  0
  -46.6367   -0.8738   20.6554 C   0  0  0  0  0  0  0  0  0  0  0  0
  -50.0267   -4.8098   16.0594 C   0  0  0  0  0  0  0  0  0  0  0  0
  -51.1777   -5.3758   16.9124 C   0  0  0  0  0  0  0  0  0  0  0  0
  -52.4897   -5.6998   16.2154 C   0  0  0  0  0  0  0  0  0  0  0  0
  -53.0947   -6.8938   16.5454 C   0  0  0  0  0  0  0  0  0  0  0  0
  -53.0837   -4.8758   15.2834 C   0  0  0  0  0  0  0  0  0  0  0  0
  -54.2767   -7.2688   15.9454 C   0  0  0  0  0  0  0  0  0  0  0  0
  -54.2647   -5.2428   14.6784 C   0  0  0  0  0  0  0  0  0  0  0  0
  -54.8637   -6.4398   15.0034 C   0  0  0  0  0  0  0  0  0  0  0  0
  -47.0517   -2.0678   13.9494 H   0  0  0  0  0  0  0  0  0  0  0  0
  -48.2867    0.4002   14.8164 H   0  0  0  0  0  0  0  0  0  0  0  0
  -49.2707   -1.5538   12.8994 H   0  0  0  0  0  0  0  0  0  0  0  0
  -50.3307   -0.9888   15.5344 H   0  0  0  0  0  0  0  0  0  0  0  0
  -43.1867   -1.5258   16.7574 H   0  0  0  0  0  0  0  0  0  0  0  0
  -45.3207   -2.5348   16.7014 H   0  0  0  0  0  0  0  0  0  0  0  0
  -43.7637    0.4722   17.9244 H   0  0  0  0  0  0  0  0  0  0  0  0
  -44.0067   -1.1018   20.3304 H   0  0  0  0  0  0  0  0  0  0  0  0
  -48.8537   -3.3628   14.6774 H   0  0  0  0  0  0  0  0  0  0  0  0
  -46.1817    0.0852   18.8434 H   0  0  0  0  0  0  0  0  0  0  0  0
  -47.1387   -0.2618   12.3234 H   0  0  0  0  0  0  0  0  0  0  0  0
  -50.7907   -0.1828   12.2904 H   0  0  0  0  0  0  0  0  0  0  0  0
  -51.5467   -2.0498   13.4374 H   0  0  0  0  0  0  0  0  0  0  0  0
  -42.3157   -2.9978   18.0864 H   0  0  0  0  0  0  0  0  0  0  0  0
  -41.5577   -0.9718   18.4254 H   0  0  0  0  0  0  0  0  0  0  0  0
  -44.5987    1.6372   19.8904 H   0  0  0  0  0  0  0  0  0  0  0  0
  -54.5427   -9.2018   15.6894 H   0  0  0  0  0  0  0  0  0  0  0  0
  -55.9327   -7.6858   13.9174 H   0  0  0  0  0  0  0  0  0  0  0  0
  -45.1477   -1.4118   14.8474 H   0  0  0  0  0  0  0  0  0  0  0  0
  -45.8187    0.1092   14.7294 H   0  0  0  0  0  0  0  0  0  0  0  0
  -46.0347   -0.7548   21.4444 H   0  0  0  0  0  0  0  0  0  0  0  0
  -47.3737   -0.1998   20.6884 H   0  0  0  0  0  0  0  0  0  0  0  0
  -47.0337   -1.7908   20.6684 H   0  0  0  0  0  0  0  0  0  0  0  0
  -49.1927   -5.3348   16.2284 H   0  0  0  0  0  0  0  0  0  0  0  0
  -50.2677   -4.8758   15.0904 H   0  0  0  0  0  0  0  0  0  0  0  0
  -51.3757   -4.7058   17.6284 H   0  0  0  0  0  0  0  0  0  0  0  0
  -50.8397   -6.2608   17.2324 H   0  0  0  0  0  0  0  0  0  0  0  0
  -52.6717   -7.4938   17.2254 H   0  0  0  0  0  0  0  0  0  0  0  0
  -52.6537   -4.0048   15.0464 H   0  0  0  0  0  0  0  0  0  0  0  0
  -54.6877   -4.6408   14.0014 H   0  0  0  0  0  0  0  0  0  0  0  0
  1 13  1  0
  1 21  1  0
  2 22  1  0
  3 18  1  0
  3 23  1  0
  5 25  1  0
 11 30  1  0
 12 32  1  0
 13 14  1  0
 13 22  1  0
 14  4  1  0
 14 15  1  0
 15  6  1  0
 15 16  1  0
 16  7  1  0
 16 21  1  0
 17  8  1  0
 17 18  1  0
 17 19  1  0
 18  2  1  0
 19  9  1  0
 19 20  1  0
 20 10  1  0
 20 23  1  0
 21  5  1  0
 23 24  1  0
 25 26  1  0
 26 27  1  0
 27 28  2  0
 27 29  1  0
 28 30  1  0
 29 31  2  0
 30 32  2  0
 31 32  1  0
  4 43  1  0
  6 44  1  0
  7 45  1  0
  8 46  1  0
  9 47  1  0
 10 48  1  0
 11 49  1  0
 12 50  1  0
 13 33  1  0
 14 34  1  0
 15 35  1  0
 16 36  1  0
 17 37  1  0
 18 38  1  0
 19 39  1  0
 20 40  1  0
 21 41  1  0
 22 51  1  0
 22 52  1  0
 23 42  1  0
 24 53  1  0
 24 54  1  0
 24 55  1  0
 25 56  1  0
 25 57  1  0
 26 58  1  0
 26 59  1  0
 28 60  1  0
 29 61  1  0
 31 62  1  0
M  END
>  <LF dG>
-6.782

>  <LF VSscore>
-12.119

>  <LF Rank Score>
-9.043

>  <LF LE>
-0.212

>  <LF Structure Name>
C:\Users\Odara\AppData\Local\Temp\LeadFinder_3548_1\Ligand_1.sdf

>  <LF SDF id>
0

>  <LF Pose rank>
0

>  <LF version>
2001 1, 19 January 2019

>  <PUBCHEM_COMPOUND_CID>
69634125

>  <PUBCHEM_COMPOUND_CANONICALIZED>
1

>  <PUBCHEM_CACTVS_COMPLEXITY>
581

>  <PUBCHEM_CACTVS_HBOND_ACCEPTOR>
12

>  <PUBCHEM_CACTVS_HBOND_DONOR>
8

>  <PUBCHEM_CACTVS_ROTATABLE_BOND>
7

>  <PUBCHEM_CACTVS_SUBSKEYS>
AAADceB4PAAAAAAAAAAAAAAAAAAAAAAAAAA0SIAAAAAAAAABAAAAGgAACAAADBSwmAMyDoAABgCAAiBCAAACAAAgIAAIiAAGiIgZNiKCERKicAElwBEPmAfA4LwOIAABAAAAQABAAAIAAACAAAAAAAAAAA==

>  <PUBCHEM_IUPAC_OPENEYE_NAME>
(2R,3R,4R,5R,6S)-2-[[(2R,3S,4S,5R,6R)-6-[2-(3,4-dihydroxyphenyl)ethoxy]-3,4,5-trihydroxy-tetrahydropyran-2-yl]methoxy]-6-methyl-tetrahydropyran-3,4,5-triol

>  <PUBCHEM_IUPAC_CAS_NAME>
(2R,3R,4R,5R,6S)-2-[[(2R,3S,4S,5R,6R)-6-[2-(3,4-dihydroxyphenyl)ethoxy]-3,4,5-trihydroxy-2-oxanyl]methoxy]-6-methyloxane-3,4,5-triol

>  <PUBCHEM_IUPAC_NAME_MARKUP>
(2<I>R</I>,3<I>R</I>,4<I>R</I>,5<I>R</I>,6<I>S</I>)-2-[[(2<I>R</I>,3<I>S</I>,4<I>S</I>,5<I>R</I>,6<I>R</I>)-6-[2-(3,4-dihydroxyphenyl)ethoxy]-3,4,5-trihydroxyoxan-2-yl]methoxy]-6-methyloxane-3,4,5-tri

>  <PUBCHEM_IUPAC_NAME>
(2R,3R,4R,5R,6S)-2-[[(2R,3S,4S,5R,6R)-6-[2-(3,4-dihydroxyphenyl)ethoxy]-3,4,5-trihydroxyoxan-2-yl]methoxy]-6-methyloxane-3,4,5-triol

>  <PUBCHEM_IUPAC_SYSTEMATIC_NAME>
(2R,3R,4R,5R,6S)-2-[[(2R,3S,4S,5R,6R)-6-[2-[3,4-bis(oxidanyl)phenyl]ethoxy]-3,4,5-tris(oxidanyl)oxan-2-yl]methoxy]-6-methyl-oxane-3,4,5-triol

>  <PUBCHEM_IUPAC_TRADITIONAL_NAME>
(2R,3R,4R,5R,6S)-2-[[(2R,3S,4S,5R,6R)-6-[2-(3,4-dihydroxyphenyl)ethoxy]-3,4,5-trihydroxy-tetrahydropyran-2-yl]methoxy]-6-methyl-tetrahydropyran-3,4,5-triol

>  <PUBCHEM_IUPAC_INCHI>
InChI=1S/C20H30O12/c1-8-13(23)15(25)17(27)20(31-8)30-7-12-14(24)16(26)18(28)19(32-12)29-5-4-9-2-3-10(21)11(22)6-9/h2-3,6,8,12-28H,4-5,7H2,1H3/t8-,12+,13-,14+,15+,16-,17+,18+,19+,20+/m0/s1

>  <PUBCHEM_IUPAC_INCHIKEY>
QIMGUQIHCNDUKU-OJJLXHDHSA-N

>  <PUBCHEM_XLOGP3_AA>
-2.5

>  <PUBCHEM_EXACT_MASS>
462.173726

>  <PUBCHEM_MOLECULAR_FORMULA>
C20H30O12

>  <PUBCHEM_MOLECULAR_WEIGHT>
462.4

>  <PUBCHEM_OPENEYE_CAN_SMILES>
CC1C(C(C(C(O1)OCC2C(C(C(C(O2)OCCC3=CC(=C(C=C3)O)O)O)O)O)O)O)O

>  <PUBCHEM_OPENEYE_ISO_SMILES>
C[C@H]1[C@@H]([C@H]([C@H]([C@@H](O1)OC[C@@H]2[C@H]([C@@H]([C@H]([C@@H](O2)OCCC3=CC(=C(C=C3)O)O)O)O)O)O)O)O

>  <PUBCHEM_CACTVS_TPSA>
199

>  <PUBCHEM_MONOISOTOPIC_WEIGHT>
462.173726

>  <PUBCHEM_TOTAL_CHARGE>
0

>  <PUBCHEM_HEAVY_ATOM_COUNT>
32

>  <PUBCHEM_ATOM_DEF_STEREO_COUNT>
10

>  <PUBCHEM_ATOM_UDEF_STEREO_COUNT>
0

>  <PUBCHEM_BOND_DEF_STEREO_COUNT>
0

>  <PUBCHEM_BOND_UDEF_STEREO_COUNT>
0

>  <PUBCHEM_ISOTOPIC_ATOM_COUNT>
0

>  <PUBCHEM_COMPONENT_COUNT>
1

>  <PUBCHEM_CACTVS_TAUTO_COUNT>
-1

>  <PUBCHEM_COORDINATE_TYPE>
1
5
255

>  <PUBCHEM_BONDANNOTATIONS>
20  10  5
13  22  5
18  2  5
23  24  6
27  28  8
27  29  8
28  30  8
29  31  8
30  32  8
31  32  8
14  4  6
21  5  5
15  6  5
16  7  6
17  8  6
19  9  6

>  <Preferred Pose_cresset>
true

>  <Favorite_cresset>
false

>  <MW_cresset>
462.4

>  <#Atoms_cresset>
32

>  <SlogP_cresset>
-0.4

>  <TPSA_cresset>
198.8

>  <Flexibility_cresset>
15.9

>  <#RB_cresset>
15

>  <Rof5_cresset>
2

>  <Filename_cresset>
Forsythoside E no water site 3 dimer.sdf

>  <Confs_cresset>
0

>  <Poses_cresset>
10

>  <_cresset_fieldpoints>
    -5     -47.771049      -2.122941      17.676422    -18.2855
    -5     -52.015816      -2.408082      16.176235    -12.3582
    -5     -49.006531       1.530170      12.681633    -15.5753
    -5     -44.774651      -3.380243      19.321117    -17.6909
    -5     -57.481598      -6.380752      15.569170     -9.6734
    -5     -56.481693      -8.078086      17.236256     -9.4409
    -5     -42.241318       0.853813      20.377094    -18.5052
    -5     -51.797955      -6.912775      13.498743     -1.5626
    -6     -47.344597      -2.073981      11.742918     14.2223
    -6     -45.381561       2.485565      18.467144      8.1771
    -6     -51.204666      -1.876855      11.562353     18.3536
    -6     -40.888519      -2.268297      17.186687     17.6379
    -6     -55.088379      -9.402841      13.865861     14.3206
    -6     -43.227917      -2.576406      14.846020      6.9669
    -6     -49.402199      -7.800204      15.930094      2.7352
    -6     -50.879356      -8.608343      17.690472      3.0691
    -7     -48.387287      -0.385867      17.515678     -3.7069
    -7     -46.546684      -4.485148      15.620428     -2.5241
    -7     -45.857109       1.778180      17.001801     -2.6904
    -7     -44.830376      -3.722178      19.941814     -2.5429
    -7     -46.447109       2.445653      13.797381     -1.4529
    -7     -48.156448      -3.808435      12.296909     -1.9890
    -7     -45.283504      -1.465220      11.990160     -1.6104
    -7     -50.716629       1.702443      15.075521     -1.6001
    -7     -45.143867       0.733697      12.306599     -1.5384
    -7     -47.300911      -2.396310      11.430530     -1.7759
    -7     -52.192326      -2.242657      17.099701     -2.7210
    -7     -52.735420      -0.140889      13.756323     -1.7302
    -7     -48.934090       0.874929      11.066375     -1.6377
    -7     -50.935253      -4.117400      12.791138     -3.0098
    -7     -40.591995      -2.133746      16.743631     -1.2650
    -7     -41.079887       0.179722      16.409039     -1.3937
    -7     -41.705063      -2.427425      20.244576     -2.0140
    -7     -43.804634      -3.604568      14.859356     -1.6707
    -7     -42.200195       2.130284      20.048908     -1.4878
    -7     -45.988510       2.122410      21.606339     -1.6676
    -7     -51.066681      -7.068981      13.615370     -2.1913
    -7     -53.510784     -10.075851      17.646923     -1.2878
    -7     -56.242332      -6.240188      11.987133     -1.2297
    -7     -57.031349      -9.104701      15.349211     -1.4999
    -7     -54.195892      -9.254599      13.295237     -1.3879
    -7     -43.150208       0.828972      15.351891     -1.8891
    -7     -48.131248      -2.840495      18.275471     -3.3191
    -7     -55.047615      -4.486348      18.102993     -1.8343
    -8     -48.810509      -1.404541      14.357393      5.1972
    -8     -45.693275      -0.649463      20.252419      4.5047
    -8     -53.628761      -6.031007      15.620071      6.9279
    -8     -44.466194      -0.700280      18.549068      4.7443
    -8     -46.868469      -0.743852      14.451233      4.1716
    -8     -49.393944      -4.366246      15.116850      2.4463

$$$$
W_Site3d_Forsythoside_D
  xed2sdf_05210316543D
 
 62 64  0  0  1  0  0  0  0  0999 V2000
  -51.7717   -5.0743   17.5767 O   0  0  0  0  0  0  0  0  0  0  0  0
  -49.6417   -2.5813   16.6437 O   0  0  0  0  0  0  0  0  0  0  0  0
  -47.7227   -3.4403   15.5917 O   0  0  0  0  0  0  0  0  0  0  0  0
  -52.6547   -3.1773   14.4947 O   0  0  0  0  0  0  0  0  0  0  0  0
  -52.3837   -7.3363   18.2667 O   0  0  0  0  0  0  0  0  0  0  0  0
  -54.5717   -5.2933   14.4507 O   0  0  0  0  0  0  0  0  0  0  0  0
  -53.9307   -7.6393   15.9817 O   0  0  0  0  0  0  0  0  0  0  0  0
  -48.7777   -3.0233   13.0257 O   0  0  0  0  0  0  0  0  0  0  0  0
  -48.7147   -0.1873   13.1697 O   0  0  0  0  0  0  0  0  0  0  0  0
  -46.4467    0.0057   15.0167 O   0  0  0  0  0  0  0  0  0  0  0  0
  -49.9067  -11.1053   23.3687 O   0  0  0  0  0  0  0  0  0  0  0  0
  -48.0007  -12.5663   22.0257 O   0  0  0  0  0  0  0  0  0  0  0  0
  -51.5507   -4.2043   16.4447 C   0  0  0  0  0  0  0  0  0  0  0  0
  -52.8537   -4.0263   15.6357 C   0  0  0  0  0  0  0  0  0  0  0  0
  -53.3367   -5.4123   15.1727 C   0  0  0  0  0  0  0  0  0  0  0  0
  -53.5217   -6.3273   16.3947 C   0  0  0  0  0  0  0  0  0  0  0  0
  -49.3197   -2.3293   14.1607 C   0  0  0  0  0  0  0  0  0  0  0  0
  -49.1367   -3.1923   15.4307 C   0  0  0  0  0  0  0  0  0  0  0  0
  -48.5837   -0.9883   14.3537 C   0  0  0  0  0  0  0  0  0  0  0  0
  -47.0957   -1.2323   14.6877 C   0  0  0  0  0  0  0  0  0  0  0  0
  -52.2007   -6.4013   17.1867 C   0  0  0  0  0  0  0  0  0  0  0  0
  -51.0377   -2.8293   16.9207 C   0  0  0  0  0  0  0  0  0  0  0  0
  -46.9757   -2.2343   15.8587 C   0  0  0  0  0  0  0  0  0  0  0  0
  -45.4957   -2.5813   16.0837 C   0  0  0  0  0  0  0  0  0  0  0  0
  -51.3527   -8.3343   18.3207 C   0  0  0  0  0  0  0  0  0  0  0  0
  -50.5077   -8.1283   19.5917 C   0  0  0  0  0  0  0  0  0  0  0  0
  -49.8117   -9.3423   20.1887 C   0  0  0  0  0  0  0  0  0  0  0  0
  -50.1577   -9.6903   21.4777 C   0  0  0  0  0  0  0  0  0  0  0  0
  -48.8657  -10.0863   19.5177 C   0  0  0  0  0  0  0  0  0  0  0  0
  -49.5607  -10.7673   22.0947 C   0  0  0  0  0  0  0  0  0  0  0  0
  -48.2617  -11.1633   20.1287 C   0  0  0  0  0  0  0  0  0  0  0  0
  -48.6037  -11.5053   21.4187 C   0  0  0  0  0  0  0  0  0  0  0  0
  -50.8597   -4.6233   15.8557 H   0  0  0  0  0  0  0  0  0  0  0  0
  -53.5377   -3.5913   16.2207 H   0  0  0  0  0  0  0  0  0  0  0  0
  -52.6517   -5.8103   14.5627 H   0  0  0  0  0  0  0  0  0  0  0  0
  -54.2367   -5.9483   16.9827 H   0  0  0  0  0  0  0  0  0  0  0  0
  -50.2927   -2.1573   14.0037 H   0  0  0  0  0  0  0  0  0  0  0  0
  -49.6677   -4.0293   15.2987 H   0  0  0  0  0  0  0  0  0  0  0  0
  -48.9967   -0.4973   15.1207 H   0  0  0  0  0  0  0  0  0  0  0  0
  -46.6437   -1.6203   13.8847 H   0  0  0  0  0  0  0  0  0  0  0  0
  -51.4457   -6.7473   16.6307 H   0  0  0  0  0  0  0  0  0  0  0  0
  -47.3547   -1.8073   16.6797 H   0  0  0  0  0  0  0  0  0  0  0  0
  -53.4867   -3.1173   13.9317 H   0  0  0  0  0  0  0  0  0  0  0  0
  -54.5617   -4.4953   13.8377 H   0  0  0  0  0  0  0  0  0  0  0  0
  -53.1377   -8.2113   15.7437 H   0  0  0  0  0  0  0  0  0  0  0  0
  -48.8277   -2.4593   12.1947 H   0  0  0  0  0  0  0  0  0  0  0  0
  -48.5707   -0.7333   12.3377 H   0  0  0  0  0  0  0  0  0  0  0  0
  -45.6707    0.1887   14.4037 H   0  0  0  0  0  0  0  0  0  0  0  0
  -50.8877  -11.3203   23.4387 H   0  0  0  0  0  0  0  0  0  0  0  0
  -48.4557  -13.4323   21.7917 H   0  0  0  0  0  0  0  0  0  0  0  0
  -51.5777   -2.1183   16.4707 H   0  0  0  0  0  0  0  0  0  0  0  0
  -51.1357   -2.8193   17.9157 H   0  0  0  0  0  0  0  0  0  0  0  0
  -44.9397   -2.0803   15.4207 H   0  0  0  0  0  0  0  0  0  0  0  0
  -45.2257   -2.3253   17.0117 H   0  0  0  0  0  0  0  0  0  0  0  0
  -45.3587   -3.5643   15.9647 H   0  0  0  0  0  0  0  0  0  0  0  0
  -50.7687   -8.2563   17.5127 H   0  0  0  0  0  0  0  0  0  0  0  0
  -51.7687   -9.2433   18.3407 H   0  0  0  0  0  0  0  0  0  0  0  0
  -51.1127   -7.7533   20.2947 H   0  0  0  0  0  0  0  0  0  0  0  0
  -49.7607   -7.5313   19.3017 H   0  0  0  0  0  0  0  0  0  0  0  0
  -50.8477   -9.1583   21.9677 H   0  0  0  0  0  0  0  0  0  0  0  0
  -48.6157   -9.8433   18.5807 H   0  0  0  0  0  0  0  0  0  0  0  0
  -47.5747  -11.6973   19.6357 H   0  0  0  0  0  0  0  0  0  0  0  0
  1 13  1  0
  1 21  1  0
  2 22  1  0
  3 18  1  0
  3 23  1  0
  5 25  1  0
 11 30  1  0
 12 32  1  0
 13 14  1  0
 13 22  1  0
 14  4  1  0
 14 15  1  0
 15  6  1  0
 15 16  1  0
 16  7  1  0
 16 21  1  0
 17  8  1  0
 17 18  1  0
 17 19  1  0
 18  2  1  0
 19  9  1  0
 19 20  1  0
 20 10  1  0
 20 23  1  0
 21  5  1  0
 23 24  1  0
 25 26  1  0
 26 27  1  0
 27 28  2  0
 27 29  1  0
 28 30  1  0
 29 31  2  0
 30 32  2  0
 31 32  1  0
  4 43  1  0
  6 44  1  0
  7 45  1  0
  8 46  1  0
  9 47  1  0
 10 48  1  0
 11 49  1  0
 12 50  1  0
 13 33  1  0
 14 34  1  0
 15 35  1  0
 16 36  1  0
 17 37  1  0
 18 38  1  0
 19 39  1  0
 20 40  1  0
 21 41  1  0
 22 51  1  0
 22 52  1  0
 23 42  1  0
 24 53  1  0
 24 54  1  0
 24 55  1  0
 25 56  1  0
 25 57  1  0
 26 58  1  0
 26 59  1  0
 28 60  1  0
 29 61  1  0
 31 62  1  0
M  END
>  <LF dG>
-7.306

>  <LF VSscore>
-13.168

>  <LF Rank Score>
-9.772

>  <LF LE>
-0.228

>  <LF Structure Name>
C:\Users\Odara\AppData\Local\Temp\LeadFinder_1076_1\Ligand_1.sdf

>  <LF SDF id>
0

>  <LF Pose rank>
0

>  <LF version>
2001 1, 19 January 2019

>  <PUBCHEM_COMPOUND_CID>
69634125

>  <PUBCHEM_COMPOUND_CANONICALIZED>
1

>  <PUBCHEM_CACTVS_COMPLEXITY>
581

>  <PUBCHEM_CACTVS_HBOND_ACCEPTOR>
12

>  <PUBCHEM_CACTVS_HBOND_DONOR>
8

>  <PUBCHEM_CACTVS_ROTATABLE_BOND>
7

>  <PUBCHEM_CACTVS_SUBSKEYS>
AAADceB4PAAAAAAAAAAAAAAAAAAAAAAAAAA0SIAAAAAAAAABAAAAGgAACAAADBSwmAMyDoAABgCAAiBCAAACAAAgIAAIiAAGiIgZNiKCERKicAElwBEPmAfA4LwOIAABAAAAQABAAAIAAACAAAAAAAAAAA==

>  <PUBCHEM_IUPAC_OPENEYE_NAME>
(2R,3R,4R,5R,6S)-2-[[(2R,3S,4S,5R,6R)-6-[2-(3,4-dihydroxyphenyl)ethoxy]-3,4,5-trihydroxy-tetrahydropyran-2-yl]methoxy]-6-methyl-tetrahydropyran-3,4,5-triol

>  <PUBCHEM_IUPAC_CAS_NAME>
(2R,3R,4R,5R,6S)-2-[[(2R,3S,4S,5R,6R)-6-[2-(3,4-dihydroxyphenyl)ethoxy]-3,4,5-trihydroxy-2-oxanyl]methoxy]-6-methyloxane-3,4,5-triol

>  <PUBCHEM_IUPAC_NAME_MARKUP>
(2<I>R</I>,3<I>R</I>,4<I>R</I>,5<I>R</I>,6<I>S</I>)-2-[[(2<I>R</I>,3<I>S</I>,4<I>S</I>,5<I>R</I>,6<I>R</I>)-6-[2-(3,4-dihydroxyphenyl)ethoxy]-3,4,5-trihydroxyoxan-2-yl]methoxy]-6-methyloxane-3,4,5-tri

>  <PUBCHEM_IUPAC_NAME>
(2R,3R,4R,5R,6S)-2-[[(2R,3S,4S,5R,6R)-6-[2-(3,4-dihydroxyphenyl)ethoxy]-3,4,5-trihydroxyoxan-2-yl]methoxy]-6-methyloxane-3,4,5-triol

>  <PUBCHEM_IUPAC_SYSTEMATIC_NAME>
(2R,3R,4R,5R,6S)-2-[[(2R,3S,4S,5R,6R)-6-[2-[3,4-bis(oxidanyl)phenyl]ethoxy]-3,4,5-tris(oxidanyl)oxan-2-yl]methoxy]-6-methyl-oxane-3,4,5-triol

>  <PUBCHEM_IUPAC_TRADITIONAL_NAME>
(2R,3R,4R,5R,6S)-2-[[(2R,3S,4S,5R,6R)-6-[2-(3,4-dihydroxyphenyl)ethoxy]-3,4,5-trihydroxy-tetrahydropyran-2-yl]methoxy]-6-methyl-tetrahydropyran-3,4,5-triol

>  <PUBCHEM_IUPAC_INCHI>
InChI=1S/C20H30O12/c1-8-13(23)15(25)17(27)20(31-8)30-7-12-14(24)16(26)18(28)19(32-12)29-5-4-9-2-3-10(21)11(22)6-9/h2-3,6,8,12-28H,4-5,7H2,1H3/t8-,12+,13-,14+,15+,16-,17+,18+,19+,20+/m0/s1

>  <PUBCHEM_IUPAC_INCHIKEY>
QIMGUQIHCNDUKU-OJJLXHDHSA-N

>  <PUBCHEM_XLOGP3_AA>
-2.5

>  <PUBCHEM_EXACT_MASS>
462.173726

>  <PUBCHEM_MOLECULAR_FORMULA>
C20H30O12

>  <PUBCHEM_MOLECULAR_WEIGHT>
462.4

>  <PUBCHEM_OPENEYE_CAN_SMILES>
CC1C(C(C(C(O1)OCC2C(C(C(C(O2)OCCC3=CC(=C(C=C3)O)O)O)O)O)O)O)O

>  <PUBCHEM_OPENEYE_ISO_SMILES>
C[C@H]1[C@@H]([C@H]([C@H]([C@@H](O1)OC[C@@H]2[C@H]([C@@H]([C@H]([C@@H](O2)OCCC3=CC(=C(C=C3)O)O)O)O)O)O)O)O

>  <PUBCHEM_CACTVS_TPSA>
199

>  <PUBCHEM_MONOISOTOPIC_WEIGHT>
462.173726

>  <PUBCHEM_TOTAL_CHARGE>
0

>  <PUBCHEM_HEAVY_ATOM_COUNT>
32

>  <PUBCHEM_ATOM_DEF_STEREO_COUNT>
10

>  <PUBCHEM_ATOM_UDEF_STEREO_COUNT>
0

>  <PUBCHEM_BOND_DEF_STEREO_COUNT>
0

>  <PUBCHEM_BOND_UDEF_STEREO_COUNT>
0

>  <PUBCHEM_ISOTOPIC_ATOM_COUNT>
0

>  <PUBCHEM_COMPONENT_COUNT>
1

>  <PUBCHEM_CACTVS_TAUTO_COUNT>
-1

>  <PUBCHEM_COORDINATE_TYPE>
1
5
255

>  <PUBCHEM_BONDANNOTATIONS>
20  10  5
13  22  5
18  2  5
23  24  6
27  28  8
27  29  8
28  30  8
29  31  8
30  32  8
31  32  8
14  4  6
21  5  5
15  6  5
16  7  6
17  8  6
19  9  6

>  <Preferred Pose_cresset>
true

>  <Favorite_cresset>
false

>  <MW_cresset>
462.4

>  <#Atoms_cresset>
32

>  <SlogP_cresset>
-0.4

>  <TPSA_cresset>
198.8

>  <Flexibility_cresset>
15.9

>  <#RB_cresset>
15

>  <Rof5_cresset>
2

>  <Filename_cresset>
Forsythoside E with water site 3 dimer.sdf

>  <Confs_cresset>
0

>  <Poses_cresset>
9

>  <_cresset_fieldpoints>
    -5     -51.985802      -5.147303      19.477467     -9.7986
    -5     -49.076054      -1.251673      17.899923     -7.6881
    -5     -48.575424      -3.258657      18.082047     -8.7730
    -5     -47.900444       1.388275      13.889622    -14.0312
    -5     -47.450451      -4.218947      13.714046    -15.2688
    -5     -52.307373      -1.294478      14.500082     -4.3422
    -5     -55.295181      -7.034285      14.783312    -19.4741
    -5     -47.376282       1.331379      16.024586    -13.7213
    -5     -51.416397     -11.862866      19.420450     -1.5681
    -5     -55.744896      -8.054923      16.429768    -14.3064
    -5     -48.229584     -12.020256      24.007500    -12.1368
    -6     -54.858566      -3.001968      12.798500     16.9134
    -6     -51.317299      -8.318811      15.162277     12.6725
    -6     -48.578613      -1.510177      10.675922     16.5969
    -6     -44.656052      -0.610005      13.023826      9.6781
    -6     -52.713310     -11.273797      23.251108      8.6833
    -6     -49.408146     -14.869945      21.118332      8.2612
    -6     -49.190689      -9.246866      16.428419      5.2022
    -7     -53.583923      -4.036555      18.966091     -2.4072
    -7     -49.185822      -0.352634      17.674625     -2.3769
    -7     -50.105183      -6.514921      14.411202     -2.5577
    -7     -46.758202      -4.332769      13.387666     -2.5727
    -7     -52.395214      -0.828067      14.440882     -2.3300
    -7     -51.110634      -4.539758      12.903845     -2.7606
    -7     -54.180527      -8.072451      13.598350     -1.4732
    -7     -50.703789      -0.920770      11.628265     -1.5246
    -7     -56.203671      -4.149382      15.897236     -1.6847
    -7     -51.160515      -8.085340      14.544670     -2.0871
    -7     -54.485008      -8.888269      18.050709     -1.9345
    -7     -53.401314      -9.353580      20.665119     -1.8968
    -7     -48.983250      -5.801282      17.483665     -3.2789
    -7     -51.825840     -11.808987      19.290737     -2.1695
    -7     -47.680607       0.777072      17.149834     -1.7981
    -7     -46.663063       0.822035      12.298836     -1.6169
    -7     -46.822929      -2.054911      11.423050     -1.7252
    -7     -45.873028       0.537083      17.264503     -1.7472
    -7     -44.165070      -1.065988      13.161724     -1.4132
    -7     -51.194237      -9.337258      24.680765     -1.2860
    -7     -47.027809      -8.231178      21.797140     -1.8341
    -7     -46.415932     -13.983252      20.705200     -1.2563
    -7     -49.556831     -13.528229      23.939236     -1.4749
    -7     -46.085991     -10.083426      17.686863     -1.0065
    -8     -51.949677      -3.403411      16.397015      4.2898
    -8     -52.651321      -5.292634      16.012520      5.2075
    -8     -46.169540      -2.016436      15.492682      4.5109
    -8     -48.191399      -1.764075      14.947901      4.7442
    -8     -49.222176     -10.385656      20.754066      6.9313
    -8     -49.845692      -9.314566      20.179937      5.6792

$$$$
Site3d_Lopinavir_D
  xed2sdf_05210316543D
 
 94 97  0  0  1  0  0  0  0  0999 V2000
  -49.9015   -4.9339   14.7201 O   0  0  0  0  0  0  0  0  0  0  0  0
  -50.1375   -9.3639   17.2501 O   0  0  0  0  0  0  0  0  0  0  0  0
  -47.7005  -11.9409   19.4041 O   0  0  0  0  0  0  0  0  0  0  0  0
  -50.5615   -1.2039   15.2091 O   0  0  0  0  0  0  0  0  0  0  0  0
  -50.2305    0.9151   17.2921 O   0  0  0  0  0  0  0  0  0  0  0  0
  -47.5255   -9.7059   19.1281 N   0  0  0  0  0  0  0  0  0  0  0  0
  -49.6715   -7.4519   18.3891 N   0  0  0  0  0  0  0  0  0  0  0  0
  -49.3865   -2.2359   16.8691 N   0  0  0  0  0  0  0  0  0  0  0  0
  -45.6695  -11.1319   18.9401 N   0  0  0  0  0  0  0  0  0  0  0  0
  -50.1695   -6.5859   17.3101 C   0  0  0  0  0  0  0  0  0  0  0  0
  -48.9735   -9.5219   19.3531 C   0  0  0  0  0  0  0  0  0  0  0  0
  -49.0835   -5.5599   16.9241 C   0  0  0  0  0  0  0  0  0  0  0  0
  -49.6815   -4.4379   16.0491 C   0  0  0  0  0  0  0  0  0  0  0  0
  -49.3675   -8.8389   20.6881 C   0  0  0  0  0  0  0  0  0  0  0  0
  -48.7555   -3.2089   15.9681 C   0  0  0  0  0  0  0  0  0  0  0  0
  -51.4545   -5.8809   17.7871 C   0  0  0  0  0  0  0  0  0  0  0  0
  -49.6615   -8.7859   18.2181 C   0  0  0  0  0  0  0  0  0  0  0  0
  -46.6905   -8.5109   18.9011 C   0  0  0  0  0  0  0  0  0  0  0  0
  -45.2515   -8.7489   19.3711 C   0  0  0  0  0  0  0  0  0  0  0  0
  -47.3205   -3.5309   16.4481 C   0  0  0  0  0  0  0  0  0  0  0  0
  -46.9925  -10.9559   19.1671 C   0  0  0  0  0  0  0  0  0  0  0  0
  -50.8665   -8.9869   20.9971 C   0  0  0  0  0  0  0  0  0  0  0  0
  -48.5745   -9.3749   21.8931 C   0  0  0  0  0  0  0  0  0  0  0  0
  -44.7655  -10.0079   18.6501 C   0  0  0  0  0  0  0  0  0  0  0  0
  -52.6335   -5.9819   16.8311 C   0  0  0  0  0  0  0  0  0  0  0  0
  -46.2155   -2.5239   16.1541 C   0  0  0  0  0  0  0  0  0  0  0  0
  -50.2355   -1.3179   16.3821 C   0  0  0  0  0  0  0  0  0  0  0  0
  -52.9545   -4.9299   16.0011 C   0  0  0  0  0  0  0  0  0  0  0  0
  -53.3915   -7.1319   16.7931 C   0  0  0  0  0  0  0  0  0  0  0  0
  -45.1315   -2.5039   17.0031 C   0  0  0  0  0  0  0  0  0  0  0  0
  -46.2525   -1.6479   15.0901 C   0  0  0  0  0  0  0  0  0  0  0  0
  -50.7605   -0.4129   17.4701 C   0  0  0  0  0  0  0  0  0  0  0  0
  -54.0245   -5.0259   15.1401 C   0  0  0  0  0  0  0  0  0  0  0  0
  -54.4595   -7.2309   15.9311 C   0  0  0  0  0  0  0  0  0  0  0  0
  -54.7765   -6.1769   15.1051 C   0  0  0  0  0  0  0  0  0  0  0  0
  -44.0975   -1.6199   16.7961 C   0  0  0  0  0  0  0  0  0  0  0  0
  -45.2205   -0.7609   14.8801 C   0  0  0  0  0  0  0  0  0  0  0  0
  -44.1425   -0.7469   15.7341 C   0  0  0  0  0  0  0  0  0  0  0  0
  -49.7785    1.5341   18.3901 C   0  0  0  0  0  0  0  0  0  0  0  0
  -48.4595    1.3681   18.7941 C   0  0  0  0  0  0  0  0  0  0  0  0
  -50.6165    2.3601   19.1291 C   0  0  0  0  0  0  0  0  0  0  0  0
  -48.0005    2.0051   19.9231 C   0  0  0  0  0  0  0  0  0  0  0  0
  -50.1405    2.9891   20.2561 C   0  0  0  0  0  0  0  0  0  0  0  0
  -47.4695    0.4911   18.0431 C   0  0  0  0  0  0  0  0  0  0  0  0
  -52.0715    2.6131   18.7651 C   0  0  0  0  0  0  0  0  0  0  0  0
  -48.8365    2.8151   20.6561 C   0  0  0  0  0  0  0  0  0  0  0  0
  -50.3825   -7.1309   16.4991 H   0  0  0  0  0  0  0  0  0  0  0  0
  -49.2955  -10.4669   19.3991 H   0  0  0  0  0  0  0  0  0  0  0  0
  -50.5425   -4.1549   16.4721 H   0  0  0  0  0  0  0  0  0  0  0  0
  -48.6555   -2.8789   15.0291 H   0  0  0  0  0  0  0  0  0  0  0  0
  -49.0335   -5.0609   14.2271 H   0  0  0  0  0  0  0  0  0  0  0  0
  -49.3675   -7.0859   19.1291 H   0  0  0  0  0  0  0  0  0  0  0  0
  -49.2105   -2.2639   17.7321 H   0  0  0  0  0  0  0  0  0  0  0  0
  -45.3355  -11.9459   18.9851 H   0  0  0  0  0  0  0  0  0  0  0  0
  -48.3565   -6.0229   16.4161 H   0  0  0  0  0  0  0  0  0  0  0  0
  -48.7135   -5.1529   17.7591 H   0  0  0  0  0  0  0  0  0  0  0  0
  -49.1425   -7.8739   20.5531 H   0  0  0  0  0  0  0  0  0  0  0  0
  -51.2465   -4.9129   17.9261 H   0  0  0  0  0  0  0  0  0  0  0  0
  -51.7355   -6.3479   18.6261 H   0  0  0  0  0  0  0  0  0  0  0  0
  -47.0785   -7.7389   19.4031 H   0  0  0  0  0  0  0  0  0  0  0  0
  -46.6755   -8.3159   17.9201 H   0  0  0  0  0  0  0  0  0  0  0  0
  -45.2275   -8.8829   20.3621 H   0  0  0  0  0  0  0  0  0  0  0  0
  -44.6685   -7.9639   19.1641 H   0  0  0  0  0  0  0  0  0  0  0  0
  -47.0535   -4.3979   16.0271 H   0  0  0  0  0  0  0  0  0  0  0  0
  -47.3895   -3.5339   17.4461 H   0  0  0  0  0  0  0  0  0  0  0  0
  -50.9735   -9.3929   21.9041 H   0  0  0  0  0  0  0  0  0  0  0  0
  -51.3055   -8.0879   20.9771 H   0  0  0  0  0  0  0  0  0  0  0  0
  -51.2955   -9.5739   20.3111 H   0  0  0  0  0  0  0  0  0  0  0  0
  -49.2175   -9.6909   22.5911 H   0  0  0  0  0  0  0  0  0  0  0  0
  -47.9915  -10.1339   21.6041 H   0  0  0  0  0  0  0  0  0  0  0  0
  -47.9995   -8.6469   22.2681 H   0  0  0  0  0  0  0  0  0  0  0  0
  -44.7475   -9.8419   17.6641 H   0  0  0  0  0  0  0  0  0  0  0  0
  -43.8455  -10.2339   18.9691 H   0  0  0  0  0  0  0  0  0  0  0  0
  -52.4075   -4.0929   16.0251 H   0  0  0  0  0  0  0  0  0  0  0  0
  -53.1635   -7.8989   17.3931 H   0  0  0  0  0  0  0  0  0  0  0  0
  -45.0955   -3.1369   17.7761 H   0  0  0  0  0  0  0  0  0  0  0  0
  -47.0335   -1.6569   14.4661 H   0  0  0  0  0  0  0  0  0  0  0  0
  -51.7585   -0.3829   17.4281 H   0  0  0  0  0  0  0  0  0  0  0  0
  -50.4745   -0.7679   18.3601 H   0  0  0  0  0  0  0  0  0  0  0  0
  -54.2535   -4.2599   14.5411 H   0  0  0  0  0  0  0  0  0  0  0  0
  -55.0055   -8.0679   15.9041 H   0  0  0  0  0  0  0  0  0  0  0  0
  -55.5535   -6.2479   14.4791 H   0  0  0  0  0  0  0  0  0  0  0  0
  -43.3135   -1.6119   17.4171 H   0  0  0  0  0  0  0  0  0  0  0  0
  -45.2555   -0.1269   14.1081 H   0  0  0  0  0  0  0  0  0  0  0  0
  -43.3915   -0.1029   15.5831 H   0  0  0  0  0  0  0  0  0  0  0  0
  -47.0525    1.8801   20.2141 H   0  0  0  0  0  0  0  0  0  0  0  0
  -50.7485    3.5791   20.7881 H   0  0  0  0  0  0  0  0  0  0  0  0
  -46.5885    0.5171   18.5151 H   0  0  0  0  0  0  0  0  0  0  0  0
  -47.8075   -0.4499   18.0121 H   0  0  0  0  0  0  0  0  0  0  0  0
  -47.3615    0.8291   17.1081 H   0  0  0  0  0  0  0  0  0  0  0  0
  -52.4735    3.2321   19.4401 H   0  0  0  0  0  0  0  0  0  0  0  0
  -52.1245    3.0261   17.8551 H   0  0  0  0  0  0  0  0  0  0  0  0
  -52.5725    1.7471   18.7591 H   0  0  0  0  0  0  0  0  0  0  0  0
  -48.4985    3.2751   21.4761 H   0  0  0  0  0  0  0  0  0  0  0  0
  2 17  2  0
  3 21  2  0
  4 27  2  0
  5 32  1  0
  5 39  1  0
  6 11  1  0
  6 18  1  0
  6 21  1  0
  7 17  1  0
  8 27  1  0
  9 21  1  0
  9 24  1  0
 10  7  1  0
 10 12  1  0
 10 16  1  0
 11 14  1  0
 11 17  1  0
 12 13  1  0
 13  1  1  0
 13 15  1  0
 14 22  1  0
 14 23  1  0
 15  8  1  0
 15 20  1  0
 16 25  1  0
 18 19  1  0
 19 24  1  0
 20 26  1  0
 25 28  2  0
 25 29  1  0
 26 30  2  0
 26 31  1  0
 27 32  1  0
 28 33  1  0
 29 34  2  0
 30 36  1  0
 31 37  2  0
 33 35  2  0
 34 35  1  0
 36 38  2  0
 37 38  1  0
 39 40  2  0
 39 41  1  0
 40 42  1  0
 40 44  1  0
 41 43  2  0
 41 45  1  0
 42 46  2  0
 43 46  1  0
  1 51  1  0
  7 52  1  0
  8 53  1  0
  9 54  1  0
 10 47  1  0
 11 48  1  0
 12 55  1  0
 12 56  1  0
 13 49  1  0
 14 57  1  0
 15 50  1  0
 16 58  1  0
 16 59  1  0
 18 60  1  0
 18 61  1  0
 19 62  1  0
 19 63  1  0
 20 64  1  0
 20 65  1  0
 22 66  1  0
 22 67  1  0
 22 68  1  0
 23 69  1  0
 23 70  1  0
 23 71  1  0
 24 72  1  0
 24 73  1  0
 28 74  1  0
 29 75  1  0
 30 76  1  0
 31 77  1  0
 32 78  1  0
 32 79  1  0
 33 80  1  0
 34 81  1  0
 35 82  1  0
 36 83  1  0
 37 84  1  0
 38 85  1  0
 42 86  1  0
 43 87  1  0
 44 88  1  0
 44 89  1  0
 44 90  1  0
 45 91  1  0
 45 92  1  0
 45 93  1  0
 46 94  1  0
M  END
>  <LF dG>
-9.748

>  <LF VSscore>
-12.026

>  <LF Rank Score>
-13.097

>  <LF LE>
-0.212

>  <LF Structure Name>
C:\Users\Odara\AppData\Local\Temp\LeadFinder_3560_1\Ligand_1.sdf

>  <LF SDF id>
0

>  <LF Pose rank>
0

>  <LF version>
2001 1, 19 January 2019

>  <PUBCHEM_COMPOUND_CID>
92727

>  <PUBCHEM_COMPOUND_CANONICALIZED>
1

>  <PUBCHEM_CACTVS_COMPLEXITY>
940

>  <PUBCHEM_CACTVS_HBOND_ACCEPTOR>
5

>  <PUBCHEM_CACTVS_HBOND_DONOR>
4

>  <PUBCHEM_CACTVS_ROTATABLE_BOND>
15

>  <PUBCHEM_CACTVS_SUBSKEYS>
AAADcfB/uAAAAAAAAAAAAAAAAAAAAAAAAAA8YMEAAAAAAAABUAAAHgAQCAAADTzhmAYzBoPABgCIAiFSEAICCAAgIAAIiIHMCIiOdjKE8T+XeCCu1hOYqAeQwPAOAAACAAAIAAAAAAQAABAAAAAAAAAAAA==

>  <PUBCHEM_IUPAC_OPENEYE_NAME>
(2S)-N-[(1S,3S,4S)-1-benzyl-4-[[2-(2,6-dimethylphenoxy)acetyl]amino]-3-hydroxy-5-phenyl-pentyl]-3-methyl-2-(2-oxohexahydropyrimidin-1-yl)butanamide

>  <PUBCHEM_IUPAC_CAS_NAME>
(2S)-N-[(2S,4S,5S)-5-[[2-(2,6-dimethylphenoxy)-1-oxoethyl]amino]-4-hydroxy-1,6-diphenylhexan-2-yl]-3-methyl-2-(2-oxo-1,3-diazinan-1-yl)butanamide

>  <PUBCHEM_IUPAC_NAME_MARKUP>
(2<I>S</I>)-<I>N</I>-[(2<I>S</I>,4<I>S</I>,5<I>S</I>)-5-[[2-(2,6-dimethylphenoxy)acetyl]amino]-4-hydroxy-1,6-diphenylhexan-2-yl]-3-methyl-2-(2-oxo-1,3-diazinan-1-yl)butanamide

>  <PUBCHEM_IUPAC_NAME>
(2S)-N-[(2S,4S,5S)-5-[[2-(2,6-dimethylphenoxy)acetyl]amino]-4-hydroxy-1,6-diphenylhexan-2-yl]-3-methyl-2-(2-oxo-1,3-diazinan-1-yl)butanamide

>  <PUBCHEM_IUPAC_SYSTEMATIC_NAME>
(2S)-N-[(2S,4S,5S)-5-[2-(2,6-dimethylphenoxy)ethanoylamino]-4-oxidanyl-1,6-diphenyl-hexan-2-yl]-3-methyl-2-(2-oxidanylidene-1,3-diazinan-1-yl)butanamide

>  <PUBCHEM_IUPAC_TRADITIONAL_NAME>
(2S)-N-[(1S,3S,4S)-1-benzyl-4-[[2-(2,6-dimethylphenoxy)acetyl]amino]-3-hydroxy-5-phenyl-pentyl]-2-(2-ketohexahydropyrimidin-1-yl)-3-methyl-butyramide

>  <PUBCHEM_IUPAC_INCHI>
InChI=1S/C37H48N4O5/c1-25(2)34(41-20-12-19-38-37(41)45)36(44)39-30(21-28-15-7-5-8-16-28)23-32(42)31(22-29-17-9-6-10-18-29)40-33(43)24-46-35-26(3)13-11-14-27(35)4/h5-11,13-18,25,30-32,34,42H,12,19-24H2

>  <PUBCHEM_IUPAC_INCHIKEY>
KJHKTHWMRKYKJE-SUGCFTRWSA-N

>  <PUBCHEM_XLOGP3_AA>
5.9

>  <PUBCHEM_EXACT_MASS>
628.362471

>  <PUBCHEM_MOLECULAR_FORMULA>
C37H48N4O5

>  <PUBCHEM_MOLECULAR_WEIGHT>
628.8

>  <PUBCHEM_OPENEYE_CAN_SMILES>
CC1=C(C(=CC=C1)C)OCC(=O)NC(CC2=CC=CC=C2)C(CC(CC3=CC=CC=C3)NC(=O)C(C(C)C)N4CCCNC4=O)O

>  <PUBCHEM_OPENEYE_ISO_SMILES>
CC1=C(C(=CC=C1)C)OCC(=O)N[C@@H](CC2=CC=CC=C2)[C@H](C[C@H](CC3=CC=CC=C3)NC(=O)[C@H](C(C)C)N4CCCNC4=O)O

>  <PUBCHEM_CACTVS_TPSA>
120

>  <PUBCHEM_MONOISOTOPIC_WEIGHT>
628.362471

>  <PUBCHEM_TOTAL_CHARGE>
0

>  <PUBCHEM_HEAVY_ATOM_COUNT>
46

>  <PUBCHEM_ATOM_DEF_STEREO_COUNT>
4

>  <PUBCHEM_ATOM_UDEF_STEREO_COUNT>
0

>  <PUBCHEM_BOND_DEF_STEREO_COUNT>
0

>  <PUBCHEM_BOND_UDEF_STEREO_COUNT>
0

>  <PUBCHEM_ISOTOPIC_ATOM_COUNT>
0

>  <PUBCHEM_COMPONENT_COUNT>
1

>  <PUBCHEM_CACTVS_TAUTO_COUNT>
-1

>  <PUBCHEM_COORDINATE_TYPE>
1
5
255

>  <PUBCHEM_BONDANNOTATIONS>
13  1  6
11  17  5
25  28  8
25  29  8
26  30  8
26  31  8
28  33  8
29  34  8
30  36  8
31  37  8
33  35  8
34  35  8
36  38  8
37  38  8
39  40  8
39  41  8
40  42  8
41  43  8
42  46  8
43  46  8
10  7  6
15  8  5

>  <Preferred Pose_cresset>
true

>  <Favorite_cresset>
false

>  <MW_cresset>
628.8

>  <#Atoms_cresset>
46

>  <SlogP_cresset>
4.7

>  <TPSA_cresset>
120

>  <Flexibility_cresset>
16.1

>  <#RB_cresset>
16

>  <Rof5_cresset>
1

>  <Filename_cresset>
lopinavir no water site 3 dimer.sdf

>  <Confs_cresset>
0

>  <Poses_cresset>
10

>  <_cresset_fieldpoints>
    -5     -51.351273      -5.961357      14.006865    -15.0745
    -5     -50.931133      -2.604369      13.957375    -16.3608
    -5     -49.913963     -11.116081      16.902834    -18.3433
    -5     -51.078178      -9.483015      15.688454    -16.1272
    -5     -48.958305     -13.183941      19.522026    -18.0520
    -5     -48.088333     -13.651487      19.524651    -18.0596
    -5     -51.394234       0.161544      14.463172    -17.3985
    -5     -55.474289      -5.059189      17.903736     -4.0773
    -5     -43.709457      -3.374170      14.215259     -2.8804
    -5     -50.085781       0.347849      21.746464     -1.6986
    -6     -47.254250      -5.487699      14.124996     11.5597
    -6     -43.616928     -12.821182      18.883732      4.9652
    -6     -57.302811      -7.061783      13.618841      1.7315
    -6     -45.289543       0.670622      20.536901      3.2648
    -6     -48.216637      -5.796509      19.952560     13.1227
    -6     -49.030891      -3.408618      19.255842     12.7405
    -6     -52.492920       4.472234      21.540056      2.9287
    -7     -51.046928      -6.870731      14.015731     -3.2038
    -7     -51.359684      -2.979021      13.842766     -2.9062
    -7     -47.746475     -10.141983      16.335327     -2.6660
    -7     -48.074402      -8.640655      15.805267     -2.8271
    -7     -52.296410     -10.041073      18.017963     -2.6788
    -7     -49.469902     -12.365881      21.066559     -2.2353
    -7     -45.600739     -11.105466      21.736771     -2.4515
    -7     -48.652843       0.563341      14.923696     -3.4473
    -7     -52.922508      -1.734758      15.201320     -2.3640
    -7     -52.050705       1.776708      15.487431     -2.0206
    -7     -50.221096      -5.465130      20.715649     -2.7898
    -7     -47.779308      -5.410051      20.042244     -2.9555
    -7     -53.640350      -7.503897      20.002272     -2.1834
    -7     -49.506233      -4.878929      20.198132     -2.8357
    -7     -49.723835      -3.685472      19.589798     -3.1599
    -7     -44.034859      -4.118983      14.153826     -1.8746
    -7     -51.290794      -9.027677      15.174113     -2.3910
    -7     -47.094116      -4.402552      13.308235     -2.4199
    -7     -52.405560      -2.814688      18.499655     -2.8495
    -7     -48.681416      -1.785893      20.061991     -2.8815
    -7     -56.290459      -4.291266      12.717630     -0.9699
    -7     -55.396194      -4.839383      18.451214     -1.8483
    -7     -57.146046      -8.461927      14.255970     -0.9687
    -7     -47.596642      -2.342867      19.649910     -3.1109
    -7     -46.054405      -5.442213      18.600002     -3.2768
    -7     -47.011429      -5.936936      14.102243     -2.1762
    -7     -44.923199       2.151638      17.174879     -2.0760
    -7     -45.850510       2.990983      22.313572     -1.0058
    -7     -50.154564       4.852148      23.059727     -1.0029
    -7     -48.507652       4.541113      17.475456     -2.0009
    -7     -50.146477      -0.642560      20.926863     -2.5439
    -8     -48.457687      -4.355228      16.522369      5.8653
    -8     -50.303467      -5.447739      17.058836      5.9508
    -8     -45.446594      -8.887564      18.798883      4.9524
    -8     -53.700649      -6.078938      15.971929      7.1984
    -8     -49.562515      -9.249407      20.900877      5.8930
    -8     -51.007858      -1.189966      17.504520      2.9017
    -8     -45.187923      -1.631623      15.951225      7.2231
    -8     -47.130096      -2.713655      15.791101      5.5947
    -8     -52.546143      -5.986273      16.849232      5.7758
    -8     -51.401665      -5.920532      17.020370      5.6454
    -8     -48.293556       1.352739      18.884048      5.4868
    -8     -49.295509       2.189443      19.551193      7.0782

$$$$
W_Site3d_Lopinavir_D
  xed2sdf_05210316543D
 
 94 97  0  0  1  0  0  0  0  0999 V2000
  -49.7742   -5.1497   14.7753 O   0  0  0  0  0  0  0  0  0  0  0  0
  -49.9892   -9.3357   17.1193 O   0  0  0  0  0  0  0  0  0  0  0  0
  -47.9852  -12.0337   19.1633 O   0  0  0  0  0  0  0  0  0  0  0  0
  -50.7922   -1.3677   15.2293 O   0  0  0  0  0  0  0  0  0  0  0  0
  -50.6152    0.7803   17.2953 O   0  0  0  0  0  0  0  0  0  0  0  0
  -47.7012   -9.7937   19.2243 N   0  0  0  0  0  0  0  0  0  0  0  0
  -49.9742   -7.5107   18.4753 N   0  0  0  0  0  0  0  0  0  0  0  0
  -49.6002   -2.3307   16.9183 N   0  0  0  0  0  0  0  0  0  0  0  0
  -45.8832  -11.2767   19.1313 N   0  0  0  0  0  0  0  0  0  0  0  0
  -50.4142   -6.6047   17.4043 C   0  0  0  0  0  0  0  0  0  0  0  0
  -49.1542   -9.5687   19.3663 C   0  0  0  0  0  0  0  0  0  0  0  0
  -49.3202   -5.5517   17.1313 C   0  0  0  0  0  0  0  0  0  0  0  0
  -49.7952   -4.5347   16.0723 C   0  0  0  0  0  0  0  0  0  0  0  0
  -49.6052   -8.8817   20.6803 C   0  0  0  0  0  0  0  0  0  0  0  0
  -48.9052   -3.2777   16.0343 C   0  0  0  0  0  0  0  0  0  0  0  0
  -51.7362   -5.9337   17.8283 C   0  0  0  0  0  0  0  0  0  0  0  0
  -49.7532   -8.8077   18.1973 C   0  0  0  0  0  0  0  0  0  0  0  0
  -46.8082   -8.6207   19.1763 C   0  0  0  0  0  0  0  0  0  0  0  0
  -45.5082   -8.9497   18.4353 C   0  0  0  0  0  0  0  0  0  0  0  0
  -47.4802   -3.5597   16.5673 C   0  0  0  0  0  0  0  0  0  0  0  0
  -47.2202  -11.0637   19.1733 C   0  0  0  0  0  0  0  0  0  0  0  0
  -51.1222   -8.9957   20.9053 C   0  0  0  0  0  0  0  0  0  0  0  0
  -48.8922   -9.4377   21.9243 C   0  0  0  0  0  0  0  0  0  0  0  0
  -44.9112  -10.1717   19.1363 C   0  0  0  0  0  0  0  0  0  0  0  0
  -52.8462   -5.9917   16.7893 C   0  0  0  0  0  0  0  0  0  0  0  0
  -46.3762   -2.5597   16.2443 C   0  0  0  0  0  0  0  0  0  0  0  0
  -50.4832   -1.4587   16.4093 C   0  0  0  0  0  0  0  0  0  0  0  0
  -53.5142   -7.1717   16.5443 C   0  0  0  0  0  0  0  0  0  0  0  0
  -53.1892   -4.8597   16.0853 C   0  0  0  0  0  0  0  0  0  0  0  0
  -45.2262   -2.6167   17.0003 C   0  0  0  0  0  0  0  0  0  0  0  0
  -46.4752   -1.6177   15.2423 C   0  0  0  0  0  0  0  0  0  0  0  0
  -51.0712   -0.5737   17.4803 C   0  0  0  0  0  0  0  0  0  0  0  0
  -54.5162   -7.2187   15.6013 C   0  0  0  0  0  0  0  0  0  0  0  0
  -54.1922   -4.9037   15.1443 C   0  0  0  0  0  0  0  0  0  0  0  0
  -54.8552   -6.0847   14.9013 C   0  0  0  0  0  0  0  0  0  0  0  0
  -44.1892   -1.7437   16.7623 C   0  0  0  0  0  0  0  0  0  0  0  0
  -45.4412   -0.7427   15.0023 C   0  0  0  0  0  0  0  0  0  0  0  0
  -44.2962   -0.8047   15.7623 C   0  0  0  0  0  0  0  0  0  0  0  0
  -50.2082    1.4333   18.3913 C   0  0  0  0  0  0  0  0  0  0  0  0
  -48.8792    1.3693   18.7913 C   0  0  0  0  0  0  0  0  0  0  0  0
  -51.1052    2.1923   19.1333 C   0  0  0  0  0  0  0  0  0  0  0  0
  -48.4672    2.0413   19.9183 C   0  0  0  0  0  0  0  0  0  0  0  0
  -50.6762    2.8573   20.2583 C   0  0  0  0  0  0  0  0  0  0  0  0
  -47.8272    0.5713   18.0373 C   0  0  0  0  0  0  0  0  0  0  0  0
  -52.5762    2.3313   18.7733 C   0  0  0  0  0  0  0  0  0  0  0  0
  -49.3612    2.7843   20.6533 C   0  0  0  0  0  0  0  0  0  0  0  0
  -50.5692   -7.1167   16.5593 H   0  0  0  0  0  0  0  0  0  0  0  0
  -49.5062  -10.5047   19.3873 H   0  0  0  0  0  0  0  0  0  0  0  0
  -50.7222   -4.2547   16.3213 H   0  0  0  0  0  0  0  0  0  0  0  0
  -48.7802   -2.9377   15.1023 H   0  0  0  0  0  0  0  0  0  0  0  0
  -48.9112   -4.9607   14.2933 H   0  0  0  0  0  0  0  0  0  0  0  0
  -49.8412   -7.1907   19.2833 H   0  0  0  0  0  0  0  0  0  0  0  0
  -49.4382   -2.3457   17.7833 H   0  0  0  0  0  0  0  0  0  0  0  0
  -45.5852  -12.1057   19.1153 H   0  0  0  0  0  0  0  0  0  0  0  0
  -48.4942   -6.0107   16.8023 H   0  0  0  0  0  0  0  0  0  0  0  0
  -49.1252   -5.0617   17.9813 H   0  0  0  0  0  0  0  0  0  0  0  0
  -49.3512   -7.9217   20.5623 H   0  0  0  0  0  0  0  0  0  0  0  0
  -51.5482   -4.9737   18.0313 H   0  0  0  0  0  0  0  0  0  0  0  0
  -52.0692   -6.4467   18.6203 H   0  0  0  0  0  0  0  0  0  0  0  0
  -46.5922   -8.3347   20.1103 H   0  0  0  0  0  0  0  0  0  0  0  0
  -47.2752   -7.8847   18.6863 H   0  0  0  0  0  0  0  0  0  0  0  0
  -44.8762   -8.1767   18.4833 H   0  0  0  0  0  0  0  0  0  0  0  0
  -45.6792   -9.1337   17.4673 H   0  0  0  0  0  0  0  0  0  0  0  0
  -47.1962   -4.4457   16.2023 H   0  0  0  0  0  0  0  0  0  0  0  0
  -47.5742   -3.5067   17.5613 H   0  0  0  0  0  0  0  0  0  0  0  0
  -51.2882   -9.4017   21.8033 H   0  0  0  0  0  0  0  0  0  0  0  0
  -51.5392   -8.0867   20.8643 H   0  0  0  0  0  0  0  0  0  0  0  0
  -51.5262   -9.5707   20.1943 H   0  0  0  0  0  0  0  0  0  0  0  0
  -49.5802   -9.7417   22.5853 H   0  0  0  0  0  0  0  0  0  0  0  0
  -48.3112  -10.2097   21.6643 H   0  0  0  0  0  0  0  0  0  0  0  0
  -48.3232   -8.7247   22.3333 H   0  0  0  0  0  0  0  0  0  0  0  0
  -44.0802  -10.4577   18.6593 H   0  0  0  0  0  0  0  0  0  0  0  0
  -44.6902   -9.9327   20.0823 H   0  0  0  0  0  0  0  0  0  0  0  0
  -53.2702   -7.9977   17.0533 H   0  0  0  0  0  0  0  0  0  0  0  0
  -52.7072   -4.0007   16.2593 H   0  0  0  0  0  0  0  0  0  0  0  0
  -45.1442   -3.2977   17.7273 H   0  0  0  0  0  0  0  0  0  0  0  0
  -47.3052   -1.5707   14.6853 H   0  0  0  0  0  0  0  0  0  0  0  0
  -52.0692   -0.6007   17.4263 H   0  0  0  0  0  0  0  0  0  0  0  0
  -50.7772   -0.9027   18.3783 H   0  0  0  0  0  0  0  0  0  0  0  0
  -54.9982   -8.0777   15.4263 H   0  0  0  0  0  0  0  0  0  0  0  0
  -54.4382   -4.0777   14.6363 H   0  0  0  0  0  0  0  0  0  0  0  0
  -55.5842   -6.1177   14.2163 H   0  0  0  0  0  0  0  0  0  0  0  0
  -43.3582   -1.7917   17.3153 H   0  0  0  0  0  0  0  0  0  0  0  0
  -45.5212   -0.0607   14.2743 H   0  0  0  0  0  0  0  0  0  0  0  0
  -43.5442   -0.1697   15.5893 H   0  0  0  0  0  0  0  0  0  0  0  0
  -47.5112    1.9893   20.2063 H   0  0  0  0  0  0  0  0  0  0  0  0
  -51.3252    3.3983   20.7923 H   0  0  0  0  0  0  0  0  0  0  0  0
  -46.9492    0.6653   18.5063 H   0  0  0  0  0  0  0  0  0  0  0  0
  -48.0912   -0.3927   18.0073 H   0  0  0  0  0  0  0  0  0  0  0  0
  -47.7492    0.9163   17.1023 H   0  0  0  0  0  0  0  0  0  0  0  0
  -53.0232    2.9183   19.4493 H   0  0  0  0  0  0  0  0  0  0  0  0
  -52.6652    2.7383   17.8643 H   0  0  0  0  0  0  0  0  0  0  0  0
  -53.0092    1.4303   18.7703 H   0  0  0  0  0  0  0  0  0  0  0  0
  -49.0562    3.2703   21.4723 H   0  0  0  0  0  0  0  0  0  0  0  0
  2 17  2  0
  3 21  2  0
  4 27  2  0
  5 32  1  0
  5 39  1  0
  6 11  1  0
  6 18  1  0
  6 21  1  0
  7 17  1  0
  8 27  1  0
  9 21  1  0
  9 24  1  0
 10  7  1  0
 10 12  1  0
 10 16  1  0
 11 14  1  0
 11 17  1  0
 12 13  1  0
 13  1  1  0
 13 15  1  0
 14 22  1  0
 14 23  1  0
 15  8  1  0
 15 20  1  0
 16 25  1  0
 18 19  1  0
 19 24  1  0
 20 26  1  0
 25 28  2  0
 25 29  1  0
 26 30  2  0
 26 31  1  0
 27 32  1  0
 28 33  1  0
 29 34  2  0
 30 36  1  0
 31 37  2  0
 33 35  2  0
 34 35  1  0
 36 38  2  0
 37 38  1  0
 39 40  2  0
 39 41  1  0
 40 42  1  0
 40 44  1  0
 41 43  2  0
 41 45  1  0
 42 46  2  0
 43 46  1  0
  1 51  1  0
  7 52  1  0
  8 53  1  0
  9 54  1  0
 10 47  1  0
 11 48  1  0
 12 55  1  0
 12 56  1  0
 13 49  1  0
 14 57  1  0
 15 50  1  0
 16 58  1  0
 16 59  1  0
 18 60  1  0
 18 61  1  0
 19 62  1  0
 19 63  1  0
 20 64  1  0
 20 65  1  0
 22 66  1  0
 22 67  1  0
 22 68  1  0
 23 69  1  0
 23 70  1  0
 23 71  1  0
 24 72  1  0
 24 73  1  0
 28 74  1  0
 29 75  1  0
 30 76  1  0
 31 77  1  0
 32 78  1  0
 32 79  1  0
 33 80  1  0
 34 81  1  0
 35 82  1  0
 36 83  1  0
 37 84  1  0
 38 85  1  0
 42 86  1  0
 43 87  1  0
 44 88  1  0
 44 89  1  0
 44 90  1  0
 45 91  1  0
 45 92  1  0
 45 93  1  0
 46 94  1  0
M  END
>  <LF dG>
-9.881

>  <LF VSscore>
-12.078

>  <LF Rank Score>
-12.929

>  <LF LE>
-0.215

>  <LF Structure Name>
C:\Users\Odara\AppData\Local\Temp\LeadFinder_7292_1\Ligand_1.sdf

>  <LF SDF id>
0

>  <LF Pose rank>
0

>  <LF version>
2001 1, 19 January 2019

>  <PUBCHEM_COMPOUND_CID>
92727

>  <PUBCHEM_COMPOUND_CANONICALIZED>
1

>  <PUBCHEM_CACTVS_COMPLEXITY>
940

>  <PUBCHEM_CACTVS_HBOND_ACCEPTOR>
5

>  <PUBCHEM_CACTVS_HBOND_DONOR>
4

>  <PUBCHEM_CACTVS_ROTATABLE_BOND>
15

>  <PUBCHEM_CACTVS_SUBSKEYS>
AAADcfB/uAAAAAAAAAAAAAAAAAAAAAAAAAA8YMEAAAAAAAABUAAAHgAQCAAADTzhmAYzBoPABgCIAiFSEAICCAAgIAAIiIHMCIiOdjKE8T+XeCCu1hOYqAeQwPAOAAACAAAIAAAAAAQAABAAAAAAAAAAAA==

>  <PUBCHEM_IUPAC_OPENEYE_NAME>
(2S)-N-[(1S,3S,4S)-1-benzyl-4-[[2-(2,6-dimethylphenoxy)acetyl]amino]-3-hydroxy-5-phenyl-pentyl]-3-methyl-2-(2-oxohexahydropyrimidin-1-yl)butanamide

>  <PUBCHEM_IUPAC_CAS_NAME>
(2S)-N-[(2S,4S,5S)-5-[[2-(2,6-dimethylphenoxy)-1-oxoethyl]amino]-4-hydroxy-1,6-diphenylhexan-2-yl]-3-methyl-2-(2-oxo-1,3-diazinan-1-yl)butanamide

>  <PUBCHEM_IUPAC_NAME_MARKUP>
(2<I>S</I>)-<I>N</I>-[(2<I>S</I>,4<I>S</I>,5<I>S</I>)-5-[[2-(2,6-dimethylphenoxy)acetyl]amino]-4-hydroxy-1,6-diphenylhexan-2-yl]-3-methyl-2-(2-oxo-1,3-diazinan-1-yl)butanamide

>  <PUBCHEM_IUPAC_NAME>
(2S)-N-[(2S,4S,5S)-5-[[2-(2,6-dimethylphenoxy)acetyl]amino]-4-hydroxy-1,6-diphenylhexan-2-yl]-3-methyl-2-(2-oxo-1,3-diazinan-1-yl)butanamide

>  <PUBCHEM_IUPAC_SYSTEMATIC_NAME>
(2S)-N-[(2S,4S,5S)-5-[2-(2,6-dimethylphenoxy)ethanoylamino]-4-oxidanyl-1,6-diphenyl-hexan-2-yl]-3-methyl-2-(2-oxidanylidene-1,3-diazinan-1-yl)butanamide

>  <PUBCHEM_IUPAC_TRADITIONAL_NAME>
(2S)-N-[(1S,3S,4S)-1-benzyl-4-[[2-(2,6-dimethylphenoxy)acetyl]amino]-3-hydroxy-5-phenyl-pentyl]-2-(2-ketohexahydropyrimidin-1-yl)-3-methyl-butyramide

>  <PUBCHEM_IUPAC_INCHI>
InChI=1S/C37H48N4O5/c1-25(2)34(41-20-12-19-38-37(41)45)36(44)39-30(21-28-15-7-5-8-16-28)23-32(42)31(22-29-17-9-6-10-18-29)40-33(43)24-46-35-26(3)13-11-14-27(35)4/h5-11,13-18,25,30-32,34,42H,12,19-24H2

>  <PUBCHEM_IUPAC_INCHIKEY>
KJHKTHWMRKYKJE-SUGCFTRWSA-N

>  <PUBCHEM_XLOGP3_AA>
5.9

>  <PUBCHEM_EXACT_MASS>
628.362471

>  <PUBCHEM_MOLECULAR_FORMULA>
C37H48N4O5

>  <PUBCHEM_MOLECULAR_WEIGHT>
628.8

>  <PUBCHEM_OPENEYE_CAN_SMILES>
CC1=C(C(=CC=C1)C)OCC(=O)NC(CC2=CC=CC=C2)C(CC(CC3=CC=CC=C3)NC(=O)C(C(C)C)N4CCCNC4=O)O

>  <PUBCHEM_OPENEYE_ISO_SMILES>
CC1=C(C(=CC=C1)C)OCC(=O)N[C@@H](CC2=CC=CC=C2)[C@H](C[C@H](CC3=CC=CC=C3)NC(=O)[C@H](C(C)C)N4CCCNC4=O)O

>  <PUBCHEM_CACTVS_TPSA>
120

>  <PUBCHEM_MONOISOTOPIC_WEIGHT>
628.362471

>  <PUBCHEM_TOTAL_CHARGE>
0

>  <PUBCHEM_HEAVY_ATOM_COUNT>
46

>  <PUBCHEM_ATOM_DEF_STEREO_COUNT>
4

>  <PUBCHEM_ATOM_UDEF_STEREO_COUNT>
0

>  <PUBCHEM_BOND_DEF_STEREO_COUNT>
0

>  <PUBCHEM_BOND_UDEF_STEREO_COUNT>
0

>  <PUBCHEM_ISOTOPIC_ATOM_COUNT>
0

>  <PUBCHEM_COMPONENT_COUNT>
1

>  <PUBCHEM_CACTVS_TAUTO_COUNT>
-1

>  <PUBCHEM_COORDINATE_TYPE>
1
5
255

>  <PUBCHEM_BONDANNOTATIONS>
13  1  6
11  17  5
25  28  8
25  29  8
26  30  8
26  31  8
28  33  8
29  34  8
30  36  8
31  37  8
33  35  8
34  35  8
36  38  8
37  38  8
39  40  8
39  41  8
40  42  8
41  43  8
42  46  8
43  46  8
10  7  6
15  8  5

>  <Preferred Pose_cresset>
true

>  <Favorite_cresset>
false

>  <MW_cresset>
628.8

>  <#Atoms_cresset>
46

>  <SlogP_cresset>
4.7

>  <TPSA_cresset>
120

>  <Flexibility_cresset>
16.1

>  <#RB_cresset>
16

>  <Rof5_cresset>
1

>  <Filename_cresset>
lopinavir with water site 3 dimer.sdf

>  <Confs_cresset>
0

>  <Poses_cresset>
10

>  <_cresset_fieldpoints>
    -5     -51.308037      -6.101441      14.138042    -16.7019
    -5     -51.109718      -2.313063      13.688274    -15.2121
    -5     -49.334633     -11.100269      16.919628    -20.3674
    -5     -49.428513     -12.877838      18.532516    -18.5142
    -5     -49.361664     -12.334402      17.890263    -18.3926
    -5     -55.811882      -5.427567      17.774246     -3.9845
    -5     -44.032784      -3.346751      14.070019     -2.8943
    -5     -51.670158      -0.033602      14.468719    -17.1375
    -5     -49.354607       4.068421      17.378616     -4.5986
    -5     -50.383389       0.237664      21.771576     -1.6251
    -6     -47.227837      -4.619646      13.769661     10.4563
    -6     -43.894043     -13.041241      19.089384      4.8724
    -6     -49.136818      -5.700541      20.257729     11.8657
    -6     -49.381874      -3.306955      19.438076     12.4894
    -6     -57.236794      -6.801061      13.106753      1.7402
    -6     -45.640778       1.029462      20.540520      3.1034
    -6     -53.137650       4.139615      21.553417      2.9652
    -7     -51.215797      -6.819026      14.007139     -3.2075
    -7     -47.878075      -8.403996      16.040710     -3.2183
    -7     -51.445404      -3.159157      13.808115     -2.8831
    -7     -47.270699      -6.458674      14.634470     -2.3283
    -7     -47.827572     -10.143288      16.355339     -2.7661
    -7     -51.250198      -9.031416      15.120424     -2.3434
    -7     -49.581299     -12.473881      20.980415     -2.2149
    -7     -48.991024       0.464442      14.919037     -3.4044
    -7     -53.185104      -1.660865      15.114897     -2.3346
    -7     -52.494705       1.516747      15.488588     -2.0212
    -7     -50.066719      -5.138106      20.508911     -2.7671
    -7     -50.474083      -3.414505      19.620514     -3.0610
    -7     -47.942284      -5.756409      20.107323     -3.2163
    -7     -55.786644      -5.277045      18.343613     -1.8451
    -7     -53.916679      -7.985353      19.654339     -2.2433
    -7     -44.399010      -7.545206      21.296875     -1.4995
    -7     -47.845177      -2.218424      19.706568     -3.0819
    -7     -52.695446      -2.904177      18.762022     -2.6956
    -7     -45.778839      -9.785536      22.307957     -2.1373
    -7     -46.054588     -11.265837      21.922899     -2.2650
    -7     -44.453796      -4.103933      13.981947     -1.8839
    -7     -56.336750      -3.984318      12.676832     -0.9704
    -7     -57.094276      -3.827574      13.724174     -0.9630
    -7     -52.296909     -10.031056      17.790176     -2.7549
    -7     -57.004574      -8.372526      13.599649     -0.9687
    -7     -46.911034      -4.448493      13.460506     -2.3516
    -7     -46.293816      -5.496093      18.725975     -3.2513
    -7     -48.966660      -7.429992      14.522934     -2.3676
    -7     -44.631920       0.329947      19.280643     -1.8727
    -7     -48.874607      -1.778301      20.074551     -2.9208
    -7     -46.425049       3.099208      22.376312     -1.0048
    -7     -45.226486       2.124517      17.067753     -2.0124
    -7     -50.818405       4.686664      23.080708     -1.0030
    -7     -49.183723       4.530676      17.474176     -1.9981
    -7     -50.335590      -0.796779      20.913696     -2.5553
    -8     -48.629807      -4.388134      16.666515      5.7582
    -8     -50.552414      -5.482276      17.128887      5.8909
    -8     -45.572166      -9.033854      19.054981      4.9502
    -8     -49.820713      -9.284632      20.877651      5.8977
    -8     -51.282730      -1.367787      17.524727      2.9109
    -8     -47.323929      -2.738999      15.901070      5.6201
    -8     -45.343689      -1.679397      16.007111      7.2159
    -8     -51.675724      -6.012162      17.073994      5.6413
    -8     -53.844513      -6.038895      15.848259      7.2017
    -8     -52.760170      -5.988203      16.805853      5.7816
    -8     -49.775394       2.123305      19.550354      7.0781

$$$$
Site3d_DAR_D
  xed2sdf_05210316543D
 
 82 86  0  0  1  0  0  0  0  0999 V2000
  -42.2680   -1.2060   18.4263 O   0  0  0  0  0  0  0  0  0  0  0  0
  -43.2550   -1.1480   17.7133 C   0  0  0  0  0  0  0  0  0  0  0  0
  -44.5270   -0.4690   18.1683 C   0  0  0  0  0  0  0  0  0  0  0  0
  -45.7640   -1.1850   17.6243 C   0  0  0  0  0  0  0  0  0  0  0  0
  -45.6350   -1.1350   16.0983 C   0  0  0  0  0  0  0  0  0  0  0  0
  -46.8230   -1.7850   15.5283 N   0  0  0  0  0  0  0  0  0  0  0  0
  -47.2750   -3.1410   15.8873 C   0  0  0  0  0  0  0  0  0  0  0  0
  -48.7430   -2.9090   15.4893 C   0  0  0  0  0  0  0  0  0  0  0  0
  -49.7150   -4.0480   15.2913 C   0  0  0  0  0  0  0  0  0  0  0  0
  -49.3320   -5.2010   15.9043 N   0  0  0  0  0  0  0  0  0  0  0  0
  -49.1840   -5.2320   17.3633 C   0  0  0  0  0  0  0  0  0  0  0  0
  -49.5280   -6.6840   17.7303 C   0  0  0  0  0  0  0  0  0  0  0  0
  -48.2460   -7.5080   17.9313 C   0  0  0  0  0  0  0  0  0  0  0  0
  -48.5680   -8.9060   18.4913 C   0  0  0  0  0  0  0  0  0  0  0  0
  -49.3950   -8.8320   19.7903 C   0  0  0  0  0  0  0  0  0  0  0  0
  -49.3860  -10.1920   20.5083 C   0  0  0  0  0  0  0  0  0  0  0  0
  -48.0240  -10.7480   20.4683 N   0  0  0  0  0  0  0  0  0  0  0  0
  -47.7710  -11.8860   19.7913 C   0  0  0  0  0  0  0  0  0  0  0  0
  -48.6300  -12.5660   19.2333 O   0  0  0  0  0  0  0  0  0  0  0  0
  -46.3760  -12.3800   19.7323 C   0  0  0  0  0  0  0  0  0  0  0  0
  -45.3680  -11.5160   19.3623 C   0  0  0  0  0  0  0  0  0  0  0  0
  -44.0760  -11.9660   19.2783 C   0  0  0  0  0  0  0  0  0  0  0  0
  -43.7050  -13.2340   19.5453 N   0  0  0  0  0  0  0  0  0  0  0  0
  -44.6960  -14.0620   19.9193 C   0  0  0  0  0  0  0  0  0  0  0  0
  -46.0260  -13.6920   20.0303 C   0  0  0  0  0  0  0  0  0  0  0  0
  -46.9920  -14.6070   20.4723 N   0  0  0  0  0  0  0  0  0  0  0  0
  -47.0550  -15.9230   20.1873 C   0  0  0  0  0  0  0  0  0  0  0  0
  -46.3530  -16.4880   19.3613 O   0  0  0  0  0  0  0  0  0  0  0  0
  -48.1140  -16.6210   21.0223 C   0  0  0  0  0  0  0  0  0  0  0  0
  -47.8910  -16.7960   22.5183 C   0  0  0  0  0  0  0  0  0  0  0  0
  -47.6300  -15.7540   23.3813 C   0  0  0  0  0  0  0  0  0  0  0  0
  -47.4420  -15.9900   24.7243 C   0  0  0  0  0  0  0  0  0  0  0  0
  -47.5180  -17.2720   25.2143 C   0  0  0  0  0  0  0  0  0  0  0  0
  -47.7870  -18.3180   24.3603 C   0  0  0  0  0  0  0  0  0  0  0  0
  -47.8940  -19.9400   24.9773 Cl  0  0  0  0  0  0  0  0  0  0  0  0
  -47.9730  -18.0770   23.0173 C   0  0  0  0  0  0  0  0  0  0  0  0
  -50.8230   -3.8510   14.5583 C   0  0  0  0  0  0  0  0  0  0  0  0
  -51.0580   -2.5440   13.9443 C   0  0  0  0  0  0  0  0  0  0  0  0
  -50.0340   -1.7120   13.7623 C   0  0  0  0  0  0  0  0  0  0  0  0
  -48.6440   -2.1100   14.1873 C   0  0  0  0  0  0  0  0  0  0  0  0
  -47.5870   -1.1420   14.6333 C   0  0  0  0  0  0  0  0  0  0  0  0
  -47.4470    0.0080   14.2413 O   0  0  0  0  0  0  0  0  0  0  0  0
  -44.3360   -1.7430   15.6063 C   0  0  0  0  0  0  0  0  0  0  0  0
  -44.2460   -2.2580   14.5053 O   0  0  0  0  0  0  0  0  0  0  0  0
  -43.2970   -1.6760   16.4693 N   0  0  0  0  0  0  0  0  0  0  0  0
  -44.5270    0.4770   17.8453 H   0  0  0  0  0  0  0  0  0  0  0  0
  -44.5610   -0.4990   19.1673 H   0  0  0  0  0  0  0  0  0  0  0  0
  -46.5980   -0.7190   17.9213 H   0  0  0  0  0  0  0  0  0  0  0  0
  -45.8220   -2.1260   17.9563 H   0  0  0  0  0  0  0  0  0  0  0  0
  -45.5960   -0.1840   15.7913 H   0  0  0  0  0  0  0  0  0  0  0  0
  -47.1600   -3.3480   16.8583 H   0  0  0  0  0  0  0  0  0  0  0  0
  -46.7990   -3.9150   15.4673 H   0  0  0  0  0  0  0  0  0  0  0  0
  -49.1610   -2.4830   16.2923 H   0  0  0  0  0  0  0  0  0  0  0  0
  -48.9180   -5.8150   15.4273 H   0  0  0  0  0  0  0  0  0  0  0  0
  -49.8150   -4.5910   17.8003 H   0  0  0  0  0  0  0  0  0  0  0  0
  -48.2710   -4.9610   17.6673 H   0  0  0  0  0  0  0  0  0  0  0  0
  -50.0720   -7.0910   16.9963 H   0  0  0  0  0  0  0  0  0  0  0  0
  -50.0480   -6.6860   18.5843 H   0  0  0  0  0  0  0  0  0  0  0  0
  -47.6440   -7.0280   18.5693 H   0  0  0  0  0  0  0  0  0  0  0  0
  -47.7970   -7.6180   17.0443 H   0  0  0  0  0  0  0  0  0  0  0  0
  -47.7100   -9.3850   18.6793 H   0  0  0  0  0  0  0  0  0  0  0  0
  -49.1100   -9.3950   17.8083 H   0  0  0  0  0  0  0  0  0  0  0  0
  -50.3370   -8.5800   19.5693 H   0  0  0  0  0  0  0  0  0  0  0  0
  -48.9920   -8.1440   20.3943 H   0  0  0  0  0  0  0  0  0  0  0  0
  -50.0190  -10.8170   20.0533 H   0  0  0  0  0  0  0  0  0  0  0  0
  -49.6720  -10.0720   21.4593 H   0  0  0  0  0  0  0  0  0  0  0  0
  -47.3700  -10.3270   20.8833 H   0  0  0  0  0  0  0  0  0  0  0  0
  -45.5790  -10.5610   19.1543 H   0  0  0  0  0  0  0  0  0  0  0  0
  -43.3670  -11.3150   19.0043 H   0  0  0  0  0  0  0  0  0  0  0  0
  -44.4570  -15.0090   20.1313 H   0  0  0  0  0  0  0  0  0  0  0  0
  -47.6140  -14.2880   21.0083 H   0  0  0  0  0  0  0  0  0  0  0  0
  -48.2370  -17.5350   20.6343 H   0  0  0  0  0  0  0  0  0  0  0  0
  -48.8980  -16.0020   20.9733 H   0  0  0  0  0  0  0  0  0  0  0  0
  -47.5770  -14.8190   23.0293 H   0  0  0  0  0  0  0  0  0  0  0  0
  -47.2490  -15.2280   25.3433 H   0  0  0  0  0  0  0  0  0  0  0  0
  -47.3790  -17.4440   26.1903 H   0  0  0  0  0  0  0  0  0  0  0  0
  -48.1680  -18.8390   22.3993 H   0  0  0  0  0  0  0  0  0  0  0  0
  -51.4820   -4.5920   14.4333 H   0  0  0  0  0  0  0  0  0  0  0  0
  -51.9800   -2.2770   13.6643 H   0  0  0  0  0  0  0  0  0  0  0  0
  -50.1880   -0.8180   13.3413 H   0  0  0  0  0  0  0  0  0  0  0  0
  -48.3570   -2.5010   13.3123 H   0  0  0  0  0  0  0  0  0  0  0  0
  -42.5450   -2.0350   16.1853 H   0  0  0  0  0  0  0  0  0  0  0  0
  1  2  2  0
  2  3  1  0
  2 45  1  0
  3  4  1  0
  4  5  1  0
  5  6  1  0
  5 43  1  0
  6  7  1  0
  6 41  1  0
  7  8  1  0
  8  9  1  0
  8 40  1  0
  9 10  1  0
  9 37  2  0
 10 11  1  0
 11 12  1  0
 12 13  1  0
 13 14  1  0
 14 15  1  0
 15 16  1  0
 16 17  1  0
 17 18  1  0
 18 19  2  0
 18 20  1  0
 20 21  2  0
 20 25  1  0
 21 22  1  0
 22 23  2  0
 23 24  1  0
 24 25  2  0
 25 26  1  0
 26 27  1  0
 27 28  2  0
 27 29  1  0
 29 30  1  0
 30 31  2  0
 30 36  1  0
 31 32  1  0
 32 33  2  0
 33 34  1  0
 34 35  1  0
 34 36  2  0
 37 38  1  0
 38 39  2  0
 39 40  1  0
 40 41  1  0
 41 42  2  0
 43 44  2  0
 43 45  1  0
  3 46  1  0
  3 47  1  0
  4 48  1  0
  4 49  1  0
  5 50  1  0
  7 51  1  0
  7 52  1  0
  8 53  1  0
 10 54  1  0
 11 55  1  0
 11 56  1  0
 12 57  1  0
 12 58  1  0
 13 59  1  0
 13 60  1  0
 14 61  1  0
 14 62  1  0
 15 63  1  0
 15 64  1  0
 16 65  1  0
 16 66  1  0
 17 67  1  0
 21 68  1  0
 22 69  1  0
 24 70  1  0
 26 71  1  0
 29 72  1  0
 29 73  1  0
 31 74  1  0
 32 75  1  0
 33 76  1  0
 36 77  1  0
 37 78  1  0
 38 79  1  0
 39 80  1  0
 40 81  1  0
 45 82  1  0
M  END
>  <LF dG>
-10.276

>  <LF VSscore>
-11.658

>  <LF Rank Score>
-3.199

>  <LF LE>
-0.228

>  <LF Structure Name>
C:\Users\Odara\AppData\Local\Temp\LeadFinder_9636_1\Ligand_1.sdf

>  <LF SDF id>
0

>  <LF Pose rank>
0

>  <LF version>
2001 1, 19 January 2019

>  <Preferred Pose_cresset>
true

>  <Favorite_cresset>
false

>  <MW_cresset>
633.1

>  <#Atoms_cresset>
45

>  <SlogP_cresset>
2.9

>  <TPSA_cresset>
149.6

>  <Flexibility_cresset>
10.4

>  <#RB_cresset>
13

>  <Rof5_cresset>
2

>  <Filename_cresset>
dar no water site 3 dimer.sdf

>  <Confs_cresset>
0

>  <Poses_cresset>
10

>  <_cresset_fieldpoints>
    -5     -41.596649      -0.707310      20.050911    -13.0705
    -5     -48.292469       0.968155      13.046633    -17.1401
    -5     -45.527359      -2.162174      13.232788    -16.1545
    -5     -51.066185      -0.661310      15.801023     -4.1249
    -5     -51.768852      -2.115647      16.296051     -3.9300
    -5     -45.327415     -16.257914      17.825958    -14.8161
    -5     -48.399429     -14.082235      18.087502    -14.9276
    -5     -41.939152     -13.901299      19.227833    -11.1008
    -5     -50.618256     -17.036606      24.663111     -1.8880
    -5     -44.860199     -17.538666      22.925941     -2.8876
    -5     -47.347778     -20.170471      27.536419     -1.4347
    -5     -45.984230     -18.050274      18.519176    -14.3885
    -5     -50.255234      -3.568521      11.852755     -4.5449
    -6     -45.999725      -8.992460      20.818270      9.5857
    -6     -40.955463      -2.918993      15.587382      5.7886
    -6     -43.694176       1.020584      15.872507      5.2790
    -6     -46.043949      -4.494098      18.265644      7.7901
    -6     -47.227352      -6.564157      14.932951     10.6536
    -6     -49.539398     -19.371254      20.830273      3.7176
    -6     -48.373260     -13.149253      22.347641     10.6276
    -6     -46.933651     -14.950888      27.446960      3.1823
    -6     -53.722240      -3.987391      13.533461      1.1225
    -7     -44.433083      -4.202525      17.228081     -2.6711
    -7     -43.053890       0.966598      15.523735     -2.0021
    -7     -42.009132       0.854043      19.739361     -1.1358
    -7     -48.565948      -2.363213      18.855751     -2.6751
    -7     -47.927052      -5.165387      13.170180     -2.4163
    -7     -50.914627      -7.084553      14.598825     -2.0516
    -7     -49.221542      -8.363914      14.889801     -1.8972
    -7     -52.340218      -5.182144      16.831844     -2.0912
    -7     -48.533371      -5.557772      20.643450     -2.1479
    -7     -51.737530      -9.179249      17.426941     -1.9515
    -7     -45.714027      -5.080966      18.008564     -2.4936
    -7     -46.441154      -6.353358      15.371307     -2.2315
    -7     -49.613197     -13.257803      21.762081     -3.0594
    -7     -50.166092     -11.684053      17.535881     -2.0844
    -7     -45.987484      -8.309733      20.369198     -2.7340
    -7     -47.845367     -11.563932      16.829082     -2.4309
    -7     -48.685345     -14.740899      18.135441     -2.3847
    -7     -44.687176     -16.769375      21.959167     -2.7177
    -7     -48.065228     -12.412778      22.701263     -3.1692
    -7     -46.840027     -15.523190      28.038754     -0.9777
    -7     -50.913177     -16.665985      24.135370     -1.8764
    -7     -51.613373      -2.656719      17.183086     -2.2999
    -7     -48.114723       0.087824      11.865732     -1.5625
    -7     -48.858574       0.073526      16.921051     -2.6258
    -7     -45.787552      -3.112436      13.006149     -2.4635
    -8     -49.777794      -2.817993      14.550238      7.0842
    -8     -45.056992      -0.869443      17.250521      5.5812
    -8     -49.069191      -7.925484      18.573765      6.1558
    -8     -48.835640      -6.550584      17.812813      5.4892
    -8     -45.436333     -12.606833      19.659588      5.3706
    -8     -47.708092     -17.032940      23.864586      7.1917
    -8     -49.134014      -9.133435      19.356010      5.2940
    -8     -47.802448     -18.527702      24.434853      5.6101

$$$$
W_Site3d_DAR_D
  xed2sdf_05210316543D
 
 82 86  0  0  1  0  0  0  0  0999 V2000
  -41.3330    0.3915   20.5030 O   0  0  0  0  0  0  0  0  0  0  0  0
  -42.1050    0.2135   19.5760 C   0  0  0  0  0  0  0  0  0  0  0  0
  -42.6840    1.3675   18.7900 C   0  0  0  0  0  0  0  0  0  0  0  0
  -44.1190    1.0755   18.3500 C   0  0  0  0  0  0  0  0  0  0  0  0
  -44.0400   -0.1875   17.4870 C   0  0  0  0  0  0  0  0  0  0  0  0
  -45.3980   -0.4905   17.0130 N   0  0  0  0  0  0  0  0  0  0  0  0
  -46.6270   -0.1275   17.7410 C   0  0  0  0  0  0  0  0  0  0  0  0
  -47.5320   -0.1315   16.4960 C   0  0  0  0  0  0  0  0  0  0  0  0
  -49.0400   -0.1625   16.5950 C   0  0  0  0  0  0  0  0  0  0  0  0
  -49.5130    0.2525   17.8020 N   0  0  0  0  0  0  0  0  0  0  0  0
  -50.3980   -0.6255   18.5740 C   0  0  0  0  0  0  0  0  0  0  0  0
  -49.4340   -1.4035   19.4820 C   0  0  0  0  0  0  0  0  0  0  0  0
  -49.4140   -2.8915   19.0990 C   0  0  0  0  0  0  0  0  0  0  0  0
  -50.8400   -3.4225   18.8610 C   0  0  0  0  0  0  0  0  0  0  0  0
  -51.4740   -3.9725   20.1540 C   0  0  0  0  0  0  0  0  0  0  0  0
  -52.1400   -5.3335   19.8860 C   0  0  0  0  0  0  0  0  0  0  0  0
  -51.1770   -6.4055   20.1790 N   0  0  0  0  0  0  0  0  0  0  0  0
  -51.5830   -7.5435   20.7790 C   0  0  0  0  0  0  0  0  0  0  0  0
  -52.7270   -7.7445   21.1800 O   0  0  0  0  0  0  0  0  0  0  0  0
  -50.5890   -8.6185   21.0060 C   0  0  0  0  0  0  0  0  0  0  0  0
  -50.6430   -9.3525   22.1720 C   0  0  0  0  0  0  0  0  0  0  0  0
  -49.7140  -10.3325   22.4080 C   0  0  0  0  0  0  0  0  0  0  0  0
  -48.7210  -10.6455   21.5510 N   0  0  0  0  0  0  0  0  0  0  0  0
  -48.6900   -9.9315   20.4130 C   0  0  0  0  0  0  0  0  0  0  0  0
  -49.5870   -8.9255   20.0940 C   0  0  0  0  0  0  0  0  0  0  0  0
  -49.5120   -8.2605   18.8620 N   0  0  0  0  0  0  0  0  0  0  0  0
  -48.6880   -7.2425   18.5370 C   0  0  0  0  0  0  0  0  0  0  0  0
  -47.9840   -6.6405   19.3330 O   0  0  0  0  0  0  0  0  0  0  0  0
  -48.7490   -6.9345   17.0520 C   0  0  0  0  0  0  0  0  0  0  0  0
  -49.8260   -5.9945   16.5270 C   0  0  0  0  0  0  0  0  0  0  0  0
  -49.5580   -4.8165   15.8620 C   0  0  0  0  0  0  0  0  0  0  0  0
  -50.5860   -4.0185   15.4140 C   0  0  0  0  0  0  0  0  0  0  0  0
  -51.8920   -4.3955   15.6240 C   0  0  0  0  0  0  0  0  0  0  0  0
  -52.1670   -5.5735   16.2800 C   0  0  0  0  0  0  0  0  0  0  0  0
  -53.8160   -6.0595   16.5400 Cl  0  0  0  0  0  0  0  0  0  0  0  0
  -51.1360   -6.3685   16.7280 C   0  0  0  0  0  0  0  0  0  0  0  0
  -49.7610   -0.5825   15.5440 C   0  0  0  0  0  0  0  0  0  0  0  0
  -49.0760   -1.0235   14.3280 C   0  0  0  0  0  0  0  0  0  0  0  0
  -47.7980   -1.3945   14.3950 C   0  0  0  0  0  0  0  0  0  0  0  0
  -47.0610   -1.3565   15.7090 C   0  0  0  0  0  0  0  0  0  0  0  0
  -45.5860   -1.1195   15.8440 C   0  0  0  0  0  0  0  0  0  0  0  0
  -44.7220   -1.4505   15.0430 O   0  0  0  0  0  0  0  0  0  0  0  0
  -43.3980   -1.3495   18.2190 C   0  0  0  0  0  0  0  0  0  0  0  0
  -43.6790   -2.5065   17.9560 O   0  0  0  0  0  0  0  0  0  0  0  0
  -42.5030   -1.0145   19.1760 N   0  0  0  0  0  0  0  0  0  0  0  0
  -42.1190    1.5285   17.9810 H   0  0  0  0  0  0  0  0  0  0  0  0
  -42.6940    2.1765   19.3780 H   0  0  0  0  0  0  0  0  0  0  0  0
  -44.4860    1.8405   17.8210 H   0  0  0  0  0  0  0  0  0  0  0  0
  -44.7260    0.9465   19.1340 H   0  0  0  0  0  0  0  0  0  0  0  0
  -43.4410   -0.0265   16.7030 H   0  0  0  0  0  0  0  0  0  0  0  0
  -46.5710    0.7675   18.1820 H   0  0  0  0  0  0  0  0  0  0  0  0
  -46.8980   -0.7065   18.5110 H   0  0  0  0  0  0  0  0  0  0  0  0
  -47.4200    0.7775   16.0960 H   0  0  0  0  0  0  0  0  0  0  0  0
  -49.5180    1.1145   17.9780 H   0  0  0  0  0  0  0  0  0  0  0  0
  -50.9040   -1.2435   17.9720 H   0  0  0  0  0  0  0  0  0  0  0  0
  -51.0930   -0.1215   19.0880 H   0  0  0  0  0  0  0  0  0  0  0  0
  -49.7280   -1.3105   20.4330 H   0  0  0  0  0  0  0  0  0  0  0  0
  -48.5130   -1.0295   19.3700 H   0  0  0  0  0  0  0  0  0  0  0  0
  -48.9860   -3.4145   19.8350 H   0  0  0  0  0  0  0  0  0  0  0  0
  -48.8930   -2.9945   18.2510 H   0  0  0  0  0  0  0  0  0  0  0  0
  -50.8050   -4.1535   18.1790 H   0  0  0  0  0  0  0  0  0  0  0  0
  -51.4030   -2.6605   18.5420 H   0  0  0  0  0  0  0  0  0  0  0  0
  -52.1620   -3.3265   20.4870 H   0  0  0  0  0  0  0  0  0  0  0  0
  -50.7580   -4.0925   20.8420 H   0  0  0  0  0  0  0  0  0  0  0  0
  -52.4230   -5.3865   18.9290 H   0  0  0  0  0  0  0  0  0  0  0  0
  -52.9450   -5.4355   20.4710 H   0  0  0  0  0  0  0  0  0  0  0  0
  -50.3310   -6.3045   19.9520 H   0  0  0  0  0  0  0  0  0  0  0  0
  -51.3590   -9.1695   22.8450 H   0  0  0  0  0  0  0  0  0  0  0  0
  -49.7770  -10.8455   23.2640 H   0  0  0  0  0  0  0  0  0  0  0  0
  -47.9700  -10.1415   19.7510 H   0  0  0  0  0  0  0  0  0  0  0  0
  -50.0500   -8.5515   18.2280 H   0  0  0  0  0  0  0  0  0  0  0  0
  -48.8630   -7.8065   16.5760 H   0  0  0  0  0  0  0  0  0  0  0  0
  -47.8990   -6.4355   16.8800 H   0  0  0  0  0  0  0  0  0  0  0  0
  -48.6100   -4.5405   15.7040 H   0  0  0  0  0  0  0  0  0  0  0  0
  -50.3830   -3.1645   14.9360 H   0  0  0  0  0  0  0  0  0  0  0  0
  -52.6390   -3.8145   15.3010 H   0  0  0  0  0  0  0  0  0  0  0  0
  -51.3400   -7.2245   17.2040 H   0  0  0  0  0  0  0  0  0  0  0  0
  -50.7600   -0.5925   15.5900 H   0  0  0  0  0  0  0  0  0  0  0  0
  -49.5630   -1.0475   13.4550 H   0  0  0  0  0  0  0  0  0  0  0  0
  -47.3250   -1.6995   13.5690 H   0  0  0  0  0  0  0  0  0  0  0  0
  -47.2500   -2.3005   15.9810 H   0  0  0  0  0  0  0  0  0  0  0  0
  -42.1360   -1.6905   19.6040 H   0  0  0  0  0  0  0  0  0  0  0  0
  1  2  2  0
  2  3  1  0
  2 45  1  0
  3  4  1  0
  4  5  1  0
  5  6  1  0
  5 43  1  0
  6  7  1  0
  6 41  1  0
  7  8  1  0
  8  9  1  0
  8 40  1  0
  9 10  1  0
  9 37  2  0
 10 11  1  0
 11 12  1  0
 12 13  1  0
 13 14  1  0
 14 15  1  0
 15 16  1  0
 16 17  1  0
 17 18  1  0
 18 19  2  0
 18 20  1  0
 20 21  2  0
 20 25  1  0
 21 22  1  0
 22 23  2  0
 23 24  1  0
 24 25  2  0
 25 26  1  0
 26 27  1  0
 27 28  2  0
 27 29  1  0
 29 30  1  0
 30 31  2  0
 30 36  1  0
 31 32  1  0
 32 33  2  0
 33 34  1  0
 34 35  1  0
 34 36  2  0
 37 38  1  0
 38 39  2  0
 39 40  1  0
 40 41  1  0
 41 42  2  0
 43 44  2  0
 43 45  1  0
  3 46  1  0
  3 47  1  0
  4 48  1  0
  4 49  1  0
  5 50  1  0
  7 51  1  0
  7 52  1  0
  8 53  1  0
 10 54  1  0
 11 55  1  0
 11 56  1  0
 12 57  1  0
 12 58  1  0
 13 59  1  0
 13 60  1  0
 14 61  1  0
 14 62  1  0
 15 63  1  0
 15 64  1  0
 16 65  1  0
 16 66  1  0
 17 67  1  0
 21 68  1  0
 22 69  1  0
 24 70  1  0
 26 71  1  0
 29 72  1  0
 29 73  1  0
 31 74  1  0
 32 75  1  0
 33 76  1  0
 36 77  1  0
 37 78  1  0
 38 79  1  0
 39 80  1  0
 40 81  1  0
 45 82  1  0
M  END
>  <LF dG>
-9.959

>  <LF VSscore>
-11.454

>  <LF Rank Score>
-4.455

>  <LF LE>
-0.221

>  <LF Structure Name>
C:\Users\Odara\AppData\Local\Temp\LeadFinder_14064_1\Ligand_1.sdf

>  <LF SDF id>
0

>  <LF Pose rank>
0

>  <LF version>
2001 1, 19 January 2019

>  <Preferred Pose_cresset>
true

>  <Favorite_cresset>
false

>  <MW_cresset>
633.1

>  <#Atoms_cresset>
45

>  <SlogP_cresset>
2.9

>  <TPSA_cresset>
149.6

>  <Flexibility_cresset>
10.4

>  <#RB_cresset>
13

>  <Rof5_cresset>
2

>  <Filename_cresset>
dar with water site 3 dimer.sdf

>  <Confs_cresset>
0

>  <Poses_cresset>
10

>  <_cresset_fieldpoints>
    -5     -40.441830       1.664310      21.464825    -13.1841
    -5     -43.925587      -2.860505      16.090450    -20.8208
    -5     -44.728943      -2.377133      13.563338    -17.4597
    -5     -47.279839      -6.745599      21.049332    -13.6844
    -5     -47.386417     -11.940908      22.004681    -10.6863
    -5     -46.694016      -5.321204      19.301945    -14.2738
    -5     -54.041130      -8.988447      21.805408    -13.7710
    -5     -50.925903      -6.278975      13.278658     -1.9325
    -5     -55.612320      -4.719365      15.116350     -1.1099
    -5     -54.336376      -8.323034      22.040756    -13.5053
    -6     -48.187611       2.441472      18.345436     12.1876
    -6     -41.201126      -0.048901      16.803234      5.2049
    -6     -42.837013       2.302096      16.010296      5.0076
    -6     -52.719971      -1.547249      16.417999      4.3304
    -6     -53.204941      -1.278297      19.479038      3.6971
    -6     -50.677704      -9.320083      16.591015     12.4515
    -6     -51.203568     -10.529638      24.943626      2.6134
    -6     -52.605438      -1.644656      14.736428      4.1281
    -6     -41.284809      -3.140626      20.519032      5.2777
    -7     -45.252411      -1.276092      20.498402     -2.6576
    -7     -40.737968      -0.697346      17.004971     -2.0053
    -7     -39.810516       2.260079      20.019604     -1.1358
    -7     -46.194408      -3.267252      18.201359     -3.7035
    -7     -46.530773       3.074732      16.859795     -1.9518
    -7     -47.740158       2.979576      17.580921     -1.9296
    -7     -48.122169       1.512379      20.110252     -2.3395
    -7     -49.465073       2.506350      15.592096     -1.8501
    -7     -51.623226       1.653368      16.584232     -1.8686
    -7     -52.185921      -0.940794      21.375326     -1.9515
    -7     -53.009029      -1.595724      16.726360     -2.7195
    -7     -53.958092      -3.246831      17.993357     -3.0035
    -7     -49.156296      -2.943043      22.471634     -1.7895
    -7     -51.781811     -10.397972      25.177912     -0.9187
    -7     -47.694347     -12.929844      21.620644     -1.0242
    -7     -53.036224      -8.362994      18.480488     -3.3251
    -7     -50.802788      -9.592108      16.119738     -1.9984
    -7     -48.458431     -10.280405      17.088902     -2.0501
    -7     -48.604042      -5.598119      21.385506     -3.3488
    -7     -46.537148      -4.307089      14.467468     -2.2821
    -7     -52.140099      -1.622865      13.659927     -2.0240
    -7     -48.800240      -3.693629      12.692131     -2.1009
    -7     -50.748856      -6.952789      13.361013     -1.8907
    -7     -45.152168       1.758186      15.163012     -2.6866
    -7     -46.720345      -4.102793      17.684254     -3.6116
    -7     -42.954147      -2.842683      15.668043     -1.8650
    -8     -43.385849       0.653429      18.262665      5.5863
    -8     -48.311691      -0.795984      15.528785      7.1420
    -8     -50.856773      -5.170423      16.120991      7.3446
    -8     -51.467583      -4.145828      19.427746      5.5700
    -8     -49.974445      -9.332184      21.247265      5.3604
    -8     -50.179428      -2.152757      18.965767      6.3416
    -8     -52.361214      -5.622505      16.360798      5.7172

$$$$
Site3d_Disulfiram_D
  xed2sdf_05210316543D
 
 36 35  0  0  0  0  0  0  0  0999 V2000
  -50.1295    1.3818   12.7971 S   0  0  0  0  0  0  0  0  0  0  0  0
  -48.2705    0.5678   12.7931 S   0  0  0  0  0  0  0  0  0  0  0  0
  -48.3645    3.3068   11.3061 S   0  0  0  0  0  0  0  0  0  0  0  0
  -49.5695   -2.0392   13.5451 S   0  0  0  0  0  0  0  0  0  0  0  0
  -51.0375    3.6268   11.6681 N   0  0  0  0  0  0  0  0  0  0  0  0
  -47.6305   -0.8052   14.9941 N   0  0  0  0  0  0  0  0  0  0  0  0
  -52.3185    3.0068   11.2871 C   0  0  0  0  0  0  0  0  0  0  0  0
  -50.8935    5.0588   11.3611 C   0  0  0  0  0  0  0  0  0  0  0  0
  -46.4195   -1.6422   15.0421 C   0  0  0  0  0  0  0  0  0  0  0  0
  -48.1785   -0.3762   16.2901 C   0  0  0  0  0  0  0  0  0  0  0  0
  -53.0345    3.8058   10.1841 C   0  0  0  0  0  0  0  0  0  0  0  0
  -51.2655    5.9028   12.5911 C   0  0  0  0  0  0  0  0  0  0  0  0
  -45.1415   -0.7862   15.0491 C   0  0  0  0  0  0  0  0  0  0  0  0
  -48.8135   -1.5782   17.0061 C   0  0  0  0  0  0  0  0  0  0  0  0
  -49.9245    2.8608   11.8761 C   0  0  0  0  0  0  0  0  0  0  0  0
  -48.4275   -0.7982   13.8831 C   0  0  0  0  0  0  0  0  0  0  0  0
  -52.9095    2.9588   12.0921 H   0  0  0  0  0  0  0  0  0  0  0  0
  -52.1265    2.0918   10.9301 H   0  0  0  0  0  0  0  0  0  0  0  0
  -51.4955    5.2978   10.5981 H   0  0  0  0  0  0  0  0  0  0  0  0
  -49.9435    5.2468   11.1121 H   0  0  0  0  0  0  0  0  0  0  0  0
  -46.4055   -2.2442   14.2441 H   0  0  0  0  0  0  0  0  0  0  0  0
  -46.4415   -2.1772   15.8871 H   0  0  0  0  0  0  0  0  0  0  0  0
  -48.8715    0.3298   16.1421 H   0  0  0  0  0  0  0  0  0  0  0  0
  -47.4425   -0.0052   16.8561 H   0  0  0  0  0  0  0  0  0  0  0  0
  -52.4775    4.6008    9.9451 H   0  0  0  0  0  0  0  0  0  0  0  0
  -53.1635    3.2298    9.3781 H   0  0  0  0  0  0  0  0  0  0  0  0
  -53.9285    4.1078   10.5151 H   0  0  0  0  0  0  0  0  0  0  0  0
  -51.5265    5.2918   13.3381 H   0  0  0  0  0  0  0  0  0  0  0  0
  -50.4825    6.4588   12.8681 H   0  0  0  0  0  0  0  0  0  0  0  0
  -52.0305    6.5068   12.3661 H   0  0  0  0  0  0  0  0  0  0  0  0
  -45.3975    0.1808   15.0181 H   0  0  0  0  0  0  0  0  0  0  0  0
  -44.6165   -0.9692   15.8801 H   0  0  0  0  0  0  0  0  0  0  0  0
  -44.5805   -1.0122   14.2521 H   0  0  0  0  0  0  0  0  0  0  0  0
  -48.7125   -2.3902   16.4311 H   0  0  0  0  0  0  0  0  0  0  0  0
  -48.3575   -1.7282   17.8831 H   0  0  0  0  0  0  0  0  0  0  0  0
  -49.7835   -1.3992   17.1701 H   0  0  0  0  0  0  0  0  0  0  0  0
  1  2  1  0
  1 15  1  0
  2 16  1  0
  3 15  2  0
  4 16  2  0
  5  7  1  0
  5  8  1  0
  5 15  1  0
  6  9  1  0
  6 10  1  0
  6 16  1  0
  7 11  1  0
  8 12  1  0
  9 13  1  0
 10 14  1  0
  7 17  1  0
  7 18  1  0
  8 19  1  0
  8 20  1  0
  9 21  1  0
  9 22  1  0
 10 23  1  0
 10 24  1  0
 11 25  1  0
 11 26  1  0
 11 27  1  0
 12 28  1  0
 12 29  1  0
 12 30  1  0
 13 31  1  0
 13 32  1  0
 13 33  1  0
 14 34  1  0
 14 35  1  0
 14 36  1  0
M  END
>  <LF dG>
-8.709

>  <LF VSscore>
-7.805

>  <LF Rank Score>
-2.642

>  <LF LE>
-0.544

>  <LF Structure Name>
C:\Users\Odara\AppData\Local\Temp\LeadFinder_12600_1\Ligand_1.sdf

>  <LF SDF id>
0

>  <LF Pose rank>
0

>  <LF version>
2001 1, 19 January 2019

>  <PUBCHEM_COMPOUND_CID>
3117

>  <PUBCHEM_COMPOUND_CANONICALIZED>
1

>  <PUBCHEM_CACTVS_COMPLEXITY>
201

>  <PUBCHEM_CACTVS_HBOND_ACCEPTOR>
4

>  <PUBCHEM_CACTVS_HBOND_DONOR>
0

>  <PUBCHEM_CACTVS_ROTATABLE_BOND>
7

>  <PUBCHEM_CACTVS_SUBSKEYS>
AAADceBzAABwAAAAAAAAAAAAAAAAAAAAAAAAAAAAAAAAAAAAAAAAHAQAAAAAAADBAAQCAAMAAAAEAAAAAAAAAAAAAAgAAAAIAAAAAAAAAAAAAAAAAACAAAAAAAAAAAAAAAAAAAAAAAAAAAAAAAAAAAAAAA==

>  <PUBCHEM_IUPAC_OPENEYE_NAME>
diethylcarbamothioylsulfanyl N,N-diethylcarbamodithioate

>  <PUBCHEM_IUPAC_CAS_NAME>
N,N-diethylcarbamodithioic acid [[diethylamino(sulfanylidene)methyl]thio] ester

>  <PUBCHEM_IUPAC_NAME_MARKUP>
diethylcarbamothioylsulfanyl <I>N</I>,<I>N</I>-diethylcarbamodithioate

>  <PUBCHEM_IUPAC_NAME>
diethylcarbamothioylsulfanyl N,N-diethylcarbamodithioate

>  <PUBCHEM_IUPAC_SYSTEMATIC_NAME>
diethylcarbamothioylsulfanyl N,N-diethylcarbamodithioate

>  <PUBCHEM_IUPAC_TRADITIONAL_NAME>
N,N-diethylcarbamodithioic acid (diethylthiocarbamoylthio) ester

>  <PUBCHEM_IUPAC_INCHI>
InChI=1S/C10H20N2S4/c1-5-11(6-2)9(13)15-16-10(14)12(7-3)8-4/h5-8H2,1-4H3

>  <PUBCHEM_IUPAC_INCHIKEY>
AUZONCFQVSMFAP-UHFFFAOYSA-N

>  <PUBCHEM_XLOGP3>
3.9

>  <PUBCHEM_EXACT_MASS>
296.050933

>  <PUBCHEM_MOLECULAR_FORMULA>
C10H20N2S4

>  <PUBCHEM_MOLECULAR_WEIGHT>
296.5

>  <PUBCHEM_OPENEYE_CAN_SMILES>
CCN(CC)C(=S)SSC(=S)N(CC)CC

>  <PUBCHEM_OPENEYE_ISO_SMILES>
CCN(CC)C(=S)SSC(=S)N(CC)CC

>  <PUBCHEM_CACTVS_TPSA>
121

>  <PUBCHEM_MONOISOTOPIC_WEIGHT>
296.050933

>  <PUBCHEM_TOTAL_CHARGE>
0

>  <PUBCHEM_HEAVY_ATOM_COUNT>
16

>  <PUBCHEM_ATOM_DEF_STEREO_COUNT>
0

>  <PUBCHEM_ATOM_UDEF_STEREO_COUNT>
0

>  <PUBCHEM_BOND_DEF_STEREO_COUNT>
0

>  <PUBCHEM_BOND_UDEF_STEREO_COUNT>
0

>  <PUBCHEM_ISOTOPIC_ATOM_COUNT>
0

>  <PUBCHEM_COMPONENT_COUNT>
1

>  <PUBCHEM_CACTVS_TAUTO_COUNT>
-1

>  <PUBCHEM_COORDINATE_TYPE>
1
5
255

>  <Preferred Pose_cresset>
true

>  <Favorite_cresset>
false

>  <MW_cresset>
296.5

>  <#Atoms_cresset>
16

>  <SlogP_cresset>
3.6

>  <TPSA_cresset>
6.5

>  <Flexibility_cresset>
7.5

>  <#RB_cresset>
9

>  <Rof5_cresset>
0

>  <Filename_cresset>
disulfiram 3 dimer no water.sdf

>  <Confs_cresset>
0

>  <Poses_cresset>
10

>  <_cresset_fieldpoints>
    -5     -45.977970       2.158624      11.254513     -4.7443
    -5     -50.928284      -1.744766      11.320244     -4.5611
    -6     -54.277607       4.990607      12.842955      2.6595
    -6     -49.625412       2.450014      15.824171      1.9966
    -6     -45.797844      -1.333536      18.165125      3.2263
    -6     -53.297882       6.910027      10.252054      2.8723
    -7     -47.036175       2.322275      15.030466     -2.4813
    -7     -46.620338      -1.985026      11.698639     -2.0550
    -7     -50.109879       1.073656       9.536324     -2.4027
    -7     -47.972290      -4.443964      15.075741     -1.8549
    -7     -51.985329       3.175967      14.603783     -2.1618
    -7     -50.264732       3.009387       8.750885     -2.4566
    -7     -51.372177      -0.062831      15.373407     -2.4316
    -7     -54.346420       5.052466      13.017474     -1.8172
    -7     -54.535751       0.824662      10.309162     -1.0797
    -7     -53.616432       7.012683      10.342375     -1.6338
    -7     -49.238579       4.046653      14.459717     -2.5394
    -7     -48.183479       2.782453      15.008137     -2.4760
    -7     -45.686863      -1.404339      18.350800     -1.9221
    -7     -48.978706       0.871217      19.206329     -1.0575
    -8     -49.082916       1.699788      12.358358      5.6920
    -8     -49.244621       0.474563      13.099821      5.4906
    -8     -48.614708      -0.956169      16.927128      4.4320
    -8     -52.906075       3.413066      10.619527      4.4771
    -8     -51.088875       5.807735      11.915238      4.4364
    -8     -45.489250      -1.366283      15.077955      4.4064

$$$$
W_Site3d_Disulfiram_D
  xed2sdf_05210316543D
 
 36 35  0  0  0  0  0  0  0  0999 V2000
  -47.0912   -2.7259   16.2802 S   0  0  0  0  0  0  0  0  0  0  0  0
  -47.4872   -2.6209   14.2932 S   0  0  0  0  0  0  0  0  0  0  0  0
  -47.2032    0.0981   17.3082 S   0  0  0  0  0  0  0  0  0  0  0  0
  -48.5072    0.0291   13.3002 S   0  0  0  0  0  0  0  0  0  0  0  0
  -44.9822   -1.0849   16.2852 N   0  0  0  0  0  0  0  0  0  0  0  0
  -49.9152   -1.6719   14.8822 N   0  0  0  0  0  0  0  0  0  0  0  0
  -43.9632   -0.8349   17.3202 C   0  0  0  0  0  0  0  0  0  0  0  0
  -44.5992   -0.7469   14.9042 C   0  0  0  0  0  0  0  0  0  0  0  0
  -50.9482   -2.5489   14.3052 C   0  0  0  0  0  0  0  0  0  0  0  0
  -50.3582   -0.7519   15.9422 C   0  0  0  0  0  0  0  0  0  0  0  0
  -43.3872   -2.1459   17.8822 C   0  0  0  0  0  0  0  0  0  0  0  0
  -43.7612   -1.8819   14.2962 C   0  0  0  0  0  0  0  0  0  0  0  0
  -50.7042   -4.0229   14.6702 C   0  0  0  0  0  0  0  0  0  0  0  0
  -50.5662   -1.5329   17.2492 C   0  0  0  0  0  0  0  0  0  0  0  0
  -46.3032   -1.1949   16.6172 C   0  0  0  0  0  0  0  0  0  0  0  0
  -48.7592   -1.4149   14.1992 C   0  0  0  0  0  0  0  0  0  0  0  0
  -44.3792   -0.3149   18.0662 H   0  0  0  0  0  0  0  0  0  0  0  0
  -43.2142   -0.3219   16.9022 H   0  0  0  0  0  0  0  0  0  0  0  0
  -44.0662    0.0991   14.9052 H   0  0  0  0  0  0  0  0  0  0  0  0
  -45.4272   -0.6219   14.3572 H   0  0  0  0  0  0  0  0  0  0  0  0
  -50.9392   -2.4529   13.3092 H   0  0  0  0  0  0  0  0  0  0  0  0
  -51.8352   -2.2769   14.6782 H   0  0  0  0  0  0  0  0  0  0  0  0
  -51.2172   -0.3179   15.6702 H   0  0  0  0  0  0  0  0  0  0  0  0
  -49.6612   -0.0489   16.0842 H   0  0  0  0  0  0  0  0  0  0  0  0
  -43.8272   -2.9179   17.4242 H   0  0  0  0  0  0  0  0  0  0  0  0
  -42.4012   -2.1779   17.7222 H   0  0  0  0  0  0  0  0  0  0  0  0
  -43.5592   -2.1949   18.8662 H   0  0  0  0  0  0  0  0  0  0  0  0
  -43.6562   -2.6089   14.9752 H   0  0  0  0  0  0  0  0  0  0  0  0
  -44.2192   -2.2429   13.4842 H   0  0  0  0  0  0  0  0  0  0  0  0
  -42.8612   -1.5329   14.0342 H   0  0  0  0  0  0  0  0  0  0  0  0
  -49.8812   -4.0869   15.2342 H   0  0  0  0  0  0  0  0  0  0  0  0
  -51.4892   -4.3799   15.1772 H   0  0  0  0  0  0  0  0  0  0  0  0
  -50.5842   -4.5619   13.8362 H   0  0  0  0  0  0  0  0  0  0  0  0
  -50.3532   -2.4969   17.0902 H   0  0  0  0  0  0  0  0  0  0  0  0
  -49.9642   -1.1679   17.9602 H   0  0  0  0  0  0  0  0  0  0  0  0
  -51.5152   -1.4409   17.5492 H   0  0  0  0  0  0  0  0  0  0  0  0
  1  2  1  0
  1 15  1  0
  2 16  1  0
  3 15  2  0
  4 16  2  0
  5  7  1  0
  5  8  1  0
  5 15  1  0
  6  9  1  0
  6 10  1  0
  6 16  1  0
  7 11  1  0
  8 12  1  0
  9 13  1  0
 10 14  1  0
  7 17  1  0
  7 18  1  0
  8 19  1  0
  8 20  1  0
  9 21  1  0
  9 22  1  0
 10 23  1  0
 10 24  1  0
 11 25  1  0
 11 26  1  0
 11 27  1  0
 12 28  1  0
 12 29  1  0
 12 30  1  0
 13 31  1  0
 13 32  1  0
 13 33  1  0
 14 34  1  0
 14 35  1  0
 14 36  1  0
M  END
>  <LF dG>
-7.614

>  <LF VSscore>
-7.024

>  <LF Rank Score>
-2.992

>  <LF LE>
-0.476

>  <LF Structure Name>
C:\Users\Odara\AppData\Local\Temp\LeadFinder_6660_1\Ligand_1.sdf

>  <LF SDF id>
0

>  <LF Pose rank>
0

>  <LF version>
2001 1, 19 January 2019

>  <PUBCHEM_COMPOUND_CID>
3117

>  <PUBCHEM_COMPOUND_CANONICALIZED>
1

>  <PUBCHEM_CACTVS_COMPLEXITY>
201

>  <PUBCHEM_CACTVS_HBOND_ACCEPTOR>
4

>  <PUBCHEM_CACTVS_HBOND_DONOR>
0

>  <PUBCHEM_CACTVS_ROTATABLE_BOND>
7

>  <PUBCHEM_CACTVS_SUBSKEYS>
AAADceBzAABwAAAAAAAAAAAAAAAAAAAAAAAAAAAAAAAAAAAAAAAAHAQAAAAAAADBAAQCAAMAAAAEAAAAAAAAAAAAAAgAAAAIAAAAAAAAAAAAAAAAAACAAAAAAAAAAAAAAAAAAAAAAAAAAAAAAAAAAAAAAA==

>  <PUBCHEM_IUPAC_OPENEYE_NAME>
diethylcarbamothioylsulfanyl N,N-diethylcarbamodithioate

>  <PUBCHEM_IUPAC_CAS_NAME>
N,N-diethylcarbamodithioic acid [[diethylamino(sulfanylidene)methyl]thio] ester

>  <PUBCHEM_IUPAC_NAME_MARKUP>
diethylcarbamothioylsulfanyl <I>N</I>,<I>N</I>-diethylcarbamodithioate

>  <PUBCHEM_IUPAC_NAME>
diethylcarbamothioylsulfanyl N,N-diethylcarbamodithioate

>  <PUBCHEM_IUPAC_SYSTEMATIC_NAME>
diethylcarbamothioylsulfanyl N,N-diethylcarbamodithioate

>  <PUBCHEM_IUPAC_TRADITIONAL_NAME>
N,N-diethylcarbamodithioic acid (diethylthiocarbamoylthio) ester

>  <PUBCHEM_IUPAC_INCHI>
InChI=1S/C10H20N2S4/c1-5-11(6-2)9(13)15-16-10(14)12(7-3)8-4/h5-8H2,1-4H3

>  <PUBCHEM_IUPAC_INCHIKEY>
AUZONCFQVSMFAP-UHFFFAOYSA-N

>  <PUBCHEM_XLOGP3>
3.9

>  <PUBCHEM_EXACT_MASS>
296.050933

>  <PUBCHEM_MOLECULAR_FORMULA>
C10H20N2S4

>  <PUBCHEM_MOLECULAR_WEIGHT>
296.5

>  <PUBCHEM_OPENEYE_CAN_SMILES>
CCN(CC)C(=S)SSC(=S)N(CC)CC

>  <PUBCHEM_OPENEYE_ISO_SMILES>
CCN(CC)C(=S)SSC(=S)N(CC)CC

>  <PUBCHEM_CACTVS_TPSA>
121

>  <PUBCHEM_MONOISOTOPIC_WEIGHT>
296.050933

>  <PUBCHEM_TOTAL_CHARGE>
0

>  <PUBCHEM_HEAVY_ATOM_COUNT>
16

>  <PUBCHEM_ATOM_DEF_STEREO_COUNT>
0

>  <PUBCHEM_ATOM_UDEF_STEREO_COUNT>
0

>  <PUBCHEM_BOND_DEF_STEREO_COUNT>
0

>  <PUBCHEM_BOND_UDEF_STEREO_COUNT>
0

>  <PUBCHEM_ISOTOPIC_ATOM_COUNT>
0

>  <PUBCHEM_COMPONENT_COUNT>
1

>  <PUBCHEM_CACTVS_TAUTO_COUNT>
-1

>  <PUBCHEM_COORDINATE_TYPE>
1
5
255

>  <Preferred Pose_cresset>
true

>  <Favorite_cresset>
false

>  <MW_cresset>
296.5

>  <#Atoms_cresset>
16

>  <SlogP_cresset>
3.6

>  <TPSA_cresset>
6.5

>  <Flexibility_cresset>
7.5

>  <#RB_cresset>
9

>  <Rof5_cresset>
0

>  <Filename_cresset>
disulfiram 3 dimer with water.sdf

>  <Confs_cresset>
0

>  <Poses_cresset>
10

>  <_cresset_fieldpoints>
    -5     -47.768818       1.962739      15.232239     -5.5057
    -5     -48.667435       2.681229      13.071501     -4.4503
    -6     -46.018356      -2.676448      19.308676      1.5724
    -6     -49.416344      -3.604333      11.811367      2.0116
    -6     -44.234138      -4.745967      15.918221      1.8131
    -6     -53.337883      -2.806599      16.366247      2.8174
    -6     -53.526497      -1.479100      15.986908      2.8142
    -6     -41.505669       0.077148      15.434370      3.0100
    -7     -47.860153      -5.742278      15.129208     -1.7106
    -7     -47.968353      -2.320034      19.319195     -2.0496
    -7     -46.285645      -2.228568      19.451759     -2.3447
    -7     -49.233231      -4.706520      17.658146     -1.9320
    -7     -49.119293      -2.902553      11.528053     -2.1095
    -7     -48.840805       2.322410      15.567928     -1.7752
    -7     -46.348381       1.906223      14.832483     -2.1665
    -7     -44.872032       2.139611      16.411592     -1.9452
    -7     -53.751022      -1.571460      16.159203     -1.5607
    -7     -51.735687       0.307836      13.108816     -1.9120
    -7     -49.986229       1.617577      18.224924     -1.5581
    -7     -40.949989      -0.968316      15.773062     -1.7803
    -7     -45.948601      -1.233412      11.777160     -2.1527
    -7     -44.748528      -4.741873      15.735294     -2.1616
    -7     -53.365311      -3.135482      16.636902     -1.7461
    -8     -47.318939      -2.087692      15.350286      5.6872
    -8     -44.084641      -1.289441      14.295441      4.4397
    -8     -47.242439      -1.341331      16.673714      4.9844
    -8     -47.908089      -1.299911      13.865591      4.9001
    -8     -50.543755      -0.984234      16.863995      4.4555
    -8     -51.017464      -3.512579      14.404404      4.4371
    -8     -43.441513      -1.479469      17.816437      4.4192

$$$$
W_Site3d_Diammonium_D
  xed2sdf_05210316543D
 
117123  0  0  1  0  0  0  0  0999 V2000
  -52.1071   -4.3527   21.8607 O   0  0  0  0  0  0  0  0  0  0  0  0
  -46.9379   -7.0607   23.0816 O   0  0  0  0  0  0  0  0  0  0  0  0
  -54.2280   -3.2696   22.0664 O   0  0  0  0  0  0  0  0  0  0  0  0
  -42.8061   -9.2817   20.8382 O   0  5  0  0  0  0  0  0  0  0  0  0
  -41.7391  -11.2712   20.5114 O   0  0  0  0  0  0  0  0  0  0  0  0
  -53.1851   -3.2645   19.3343 O   0  0  0  0  0  0  0  0  0  0  0  0
  -53.2717   -0.4298   19.0965 O   0  0  0  0  0  0  0  0  0  0  0  0
  -55.4099    0.0956   21.0273 O   0  0  0  0  0  0  0  0  0  0  0  0
  -51.6866   -5.1350   19.3918 O   0  0  0  0  0  0  0  0  0  0  0  0
  -57.0211   -3.2498   22.1438 O   0  5  0  0  0  0  0  0  0  0  0  0
  -56.9204   -1.2823   23.2909 O   0  0  0  0  0  0  0  0  0  0  0  0
  -54.0925   -4.6888   17.3317 O   0  0  0  0  0  0  0  0  0  0  0  0
  -51.9515   -5.6921   15.3004 O   0  0  0  0  0  0  0  0  0  0  0  0
  -49.8069   -6.8632   16.7434 O   0  0  0  0  0  0  0  0  0  0  0  0
  -49.3898   -4.2633   20.2567 O   0  5  0  0  0  0  0  0  0  0  0  0
  -48.1547   -5.5442   18.8269 O   0  0  0  0  0  0  0  0  0  0  0  0
  -49.3117   -9.2167   21.4220 C   0  0  0  0  0  0  0  0  0  0  0  0
  -49.8791   -7.0703   22.9493 C   0  0  0  0  0  0  0  0  0  0  0  0
  -48.9358   -7.7834   21.9185 C   0  0  0  0  0  0  0  0  0  0  0  0
  -48.3551   -9.6058   20.2260 C   0  0  0  0  0  0  0  0  0  0  0  0
  -51.3591   -7.2145   22.4579 C   0  0  0  0  0  0  0  0  0  0  0  0
  -50.8132   -9.2493   21.0298 C   0  0  0  0  0  0  0  0  0  0  0  0
  -52.4337   -6.3786   23.2325 C   0  0  0  0  0  0  0  0  0  0  0  0
  -51.7519   -8.6754   22.1154 C   0  0  0  0  0  0  0  0  0  0  0  0
  -46.9287   -9.6272   20.7620 C   0  0  0  0  0  0  0  0  0  0  0  0
  -45.8755  -10.6063   20.2723 C   0  0  0  0  0  0  0  0  0  0  0  0
  -46.4059  -11.9445   19.6909 C   0  0  0  0  0  0  0  0  0  0  0  0
  -48.7937  -10.9446   19.5574 C   0  0  0  0  0  0  0  0  0  0  0  0
  -49.5469   -5.5500   22.9379 C   0  0  0  0  0  0  0  0  0  0  0  0
  -47.6697  -11.7117   18.8271 C   0  0  0  0  0  0  0  0  0  0  0  0
  -52.0118   -4.8834   23.2025 C   0  0  0  0  0  0  0  0  0  0  0  0
  -47.4601   -7.7975   22.2680 C   0  0  0  0  0  0  0  0  0  0  0  0
  -49.1063  -10.2493   22.5681 C   0  0  0  0  0  0  0  0  0  0  0  0
  -50.5647   -4.6650   23.6978 C   0  0  0  0  0  0  0  0  0  0  0  0
  -49.6003   -7.6095   24.3794 C   0  0  0  0  0  0  0  0  0  0  0  0
  -48.2654   -8.5396   19.1005 C   0  0  0  0  0  0  0  0  0  0  0  0
  -46.5477   -8.7879   21.7339 C   0  0  0  0  0  0  0  0  0  0  0  0
  -44.9275   -9.9183   19.2676 C   0  0  0  0  0  0  0  0  0  0  0  0
  -45.3365  -12.6239   18.7895 C   0  0  0  0  0  0  0  0  0  0  0  0
  -43.6196  -10.7399   19.1298 C   0  0  0  0  0  0  0  0  0  0  0  0
  -53.8120   -6.4825   22.5401 C   0  0  0  0  0  0  0  0  0  0  0  0
  -52.6918   -6.8354   24.6880 C   0  0  0  0  0  0  0  0  0  0  0  0
  -43.8919  -12.2645   19.2026 C   0  0  0  0  0  0  0  0  0  0  0  0
  -46.7328  -12.8978   20.8603 C   0  0  0  0  0  0  0  0  0  0  0  0
  -42.9665  -10.3852   17.7808 C   0  0  0  0  0  0  0  0  0  0  0  0
  -42.6480  -10.4075   20.2453 C   0  0  0  0  0  0  0  0  0  0  0  0
  -52.8235   -3.0990   21.7666 C   0  0  0  0  0  0  0  0  0  0  0  0
  -52.6638   -2.4282   20.3843 C   0  0  0  0  0  0  0  0  0  0  0  0
  -53.3729   -1.0589   20.3824 C   0  0  0  0  0  0  0  0  0  0  0  0
  -54.9784   -2.0340   22.1171 C   0  0  0  0  0  0  0  0  0  0  0  0
  -54.8439   -1.2068   20.8200 C   0  0  0  0  0  0  0  0  0  0  0  0
  -52.1530   -3.9925   18.6389 C   0  0  0  0  0  0  0  0  0  0  0  0
  -56.4144   -2.2011   22.5578 C   0  0  0  0  0  0  0  0  0  0  0  0
  -52.6838   -4.4257   17.2547 C   0  0  0  0  0  0  0  0  0  0  0  0
  -51.9485   -5.6787   16.7353 C   0  0  0  0  0  0  0  0  0  0  0  0
  -50.5252   -5.7707   18.8105 C   0  0  0  0  0  0  0  0  0  0  0  0
  -50.5054   -5.7247   17.2682 C   0  0  0  0  0  0  0  0  0  0  0  0
  -49.2585   -5.1482   19.3410 C   0  0  0  0  0  0  0  0  0  0  0  0
  -49.1104   -7.1552   21.1601 H   0  0  0  0  0  0  0  0  0  0  0  0
  -51.3680   -6.7407   21.5774 H   0  0  0  0  0  0  0  0  0  0  0  0
  -45.3810  -10.8747   21.0989 H   0  0  0  0  0  0  0  0  0  0  0  0
  -52.6397   -4.4079   23.8184 H   0  0  0  0  0  0  0  0  0  0  0  0
  -52.4146   -2.4949   22.4507 H   0  0  0  0  0  0  0  0  0  0  0  0
  -51.6879   -2.2943   20.2109 H   0  0  0  0  0  0  0  0  0  0  0  0
  -52.9134   -0.4671   21.0451 H   0  0  0  0  0  0  0  0  0  0  0  0
  -54.5490   -1.4986   22.8446 H   0  0  0  0  0  0  0  0  0  0  0  0
  -55.3335   -1.6911   20.0948 H   0  0  0  0  0  0  0  0  0  0  0  0
  -51.3650   -3.3874   18.5247 H   0  0  0  0  0  0  0  0  0  0  0  0
  -52.5151   -3.6773   16.6133 H   0  0  0  0  0  0  0  0  0  0  0  0
  -52.4305   -6.4896   17.0680 H   0  0  0  0  0  0  0  0  0  0  0  0
  -50.5793   -6.7325   19.0781 H   0  0  0  0  0  0  0  0  0  0  0  0
  -50.0240   -4.9008   16.9693 H   0  0  0  0  0  0  0  0  0  0  0  0
  -53.6883   -0.9933   18.3768 H   0  0  0  0  0  0  0  0  0  0  0  0
  -56.4137    0.0542   21.0809 H   0  0  0  0  0  0  0  0  0  0  0  0
  -54.6196   -3.8368   17.4233 H   0  0  0  0  0  0  0  0  0  0  0  0
  -51.8325   -6.6248   14.9427 H   0  0  0  0  0  0  0  0  0  0  0  0
  -50.4121   -7.4362   16.1797 H   0  0  0  0  0  0  0  0  0  0  0  0
  -51.0739  -10.1983   20.8527 H   0  0  0  0  0  0  0  0  0  0  0  0
  -50.9160   -8.6703   20.2208 H   0  0  0  0  0  0  0  0  0  0  0  0
  -52.6945   -8.6946   21.7821 H   0  0  0  0  0  0  0  0  0  0  0  0
  -51.6686   -9.2339   22.9405 H   0  0  0  0  0  0  0  0  0  0  0  0
  -49.5136  -10.7399   18.8941 H   0  0  0  0  0  0  0  0  0  0  0  0
  -49.0978  -11.5402   20.3008 H   0  0  0  0  0  0  0  0  0  0  0  0
  -49.5121   -5.2435   21.9865 H   0  0  0  0  0  0  0  0  0  0  0  0
  -48.6725   -5.4466   23.4117 H   0  0  0  0  0  0  0  0  0  0  0  0
  -48.0262  -12.6013   18.5419 H   0  0  0  0  0  0  0  0  0  0  0  0
  -47.3909  -11.1459   18.0512 H   0  0  0  0  0  0  0  0  0  0  0  0
  -49.9826  -10.6834   22.7762 H   0  0  0  0  0  0  0  0  0  0  0  0
  -48.4457  -10.9440   22.2825 H   0  0  0  0  0  0  0  0  0  0  0  0
  -48.7579   -9.7843   23.3820 H   0  0  0  0  0  0  0  0  0  0  0  0
  -50.3186   -3.7042   23.5680 H   0  0  0  0  0  0  0  0  0  0  0  0
  -50.5308   -4.9189   24.6644 H   0  0  0  0  0  0  0  0  0  0  0  0
  -49.2750   -6.8578   24.9531 H   0  0  0  0  0  0  0  0  0  0  0  0
  -50.4404   -7.9897   24.7667 H   0  0  0  0  0  0  0  0  0  0  0  0
  -48.9063   -8.3283   24.3389 H   0  0  0  0  0  0  0  0  0  0  0  0
  -48.5081   -8.9650   18.2288 H   0  0  0  0  0  0  0  0  0  0  0  0
  -48.8959   -7.7883   19.2956 H   0  0  0  0  0  0  0  0  0  0  0  0
  -47.3340   -8.1784   19.0524 H   0  0  0  0  0  0  0  0  0  0  0  0
  -45.6177   -8.8458   22.0967 H   0  0  0  0  0  0  0  0  0  0  0  0
  -44.7111   -8.9970   19.5907 H   0  0  0  0  0  0  0  0  0  0  0  0
  -45.3763   -9.8634   18.3755 H   0  0  0  0  0  0  0  0  0  0  0  0
  -45.4826  -12.3340   17.8436 H   0  0  0  0  0  0  0  0  0  0  0  0
  -45.4407  -13.6131   18.8914 H   0  0  0  0  0  0  0  0  0  0  0  0
  -54.4856   -6.8096   23.2029 H   0  0  0  0  0  0  0  0  0  0  0  0
  -54.0862   -5.5843   22.1966 H   0  0  0  0  0  0  0  0  0  0  0  0
  -53.7558   -7.1212   21.7726 H   0  0  0  0  0  0  0  0  0  0  0  0
  -53.6586   -7.0701   24.7889 H   0  0  0  0  0  0  0  0  0  0  0  0
  -52.1278   -7.6342   24.8966 H   0  0  0  0  0  0  0  0  0  0  0  0
  -52.4560   -6.0966   25.3197 H   0  0  0  0  0  0  0  0  0  0  0  0
  -43.2551  -12.7366   18.5931 H   0  0  0  0  0  0  0  0  0  0  0  0
  -43.7661  -12.5509   20.1523 H   0  0  0  0  0  0  0  0  0  0  0  0
  -46.1828  -13.7278   20.7671 H   0  0  0  0  0  0  0  0  0  0  0  0
  -46.5227  -12.4505   21.7295 H   0  0  0  0  0  0  0  0  0  0  0  0
  -47.7047  -13.1327   20.8416 H   0  0  0  0  0  0  0  0  0  0  0  0
  -42.0521  -10.0170   17.9485 H   0  0  0  0  0  0  0  0  0  0  0  0
  -42.9006  -11.2048   17.2117 H   0  0  0  0  0  0  0  0  0  0  0  0
  -43.5233   -9.7034   17.3062 H   0  0  0  0  0  0  0  0  0  0  0  0
  2 32  2  0
  3 47  1  0
  3 50  1  0
  4 46  1  0
  5 46  2  0
  9 52  1  0
  9 56  1  0
 10 53  1  0
 11 53  2  0
 15 58  1  0
 16 58  2  0
 17 19  1  0
 17 20  1  0
 17 22  1  0
 17 33  1  0
 18 19  1  0
 18 21  1  0
 18 29  1  0
 18 35  1  0
 19 32  1  0
 20 25  1  0
 20 28  1  0
 20 36  1  0
 21 23  1  0
 21 24  1  0
 22 24  1  0
 23 31  1  0
 23 41  1  0
 23 42  1  0
 25 26  1  0
 25 37  2  0
 26 27  1  0
 26 38  1  0
 27 30  1  0
 27 39  1  0
 27 44  1  0
 28 30  1  0
 29 34  1  0
 31  1  1  0
 31 34  1  0
 32 37  1  0
 38 40  1  0
 39 43  1  0
 40 43  1  0
 40 45  1  0
 40 46  1  0
 47  1  1  0
 47 48  1  0
 48  6  1  0
 48 49  1  0
 49  7  1  0
 49 51  1  0
 50 51  1  0
 50 53  1  0
 51  8  1  0
 52  6  1  0
 52 54  1  0
 54 12  1  0
 54 55  1  0
 55 13  1  0
 55 57  1  0
 56 57  1  0
 56 58  1  0
 57 14  1  0
  7 73  1  0
  8 74  1  0
 12 75  1  0
 13 76  1  0
 14 77  1  0
 19 59  1  0
 21 60  1  0
 22 78  1  0
 22 79  1  0
 24 80  1  0
 24 81  1  0
 26 61  1  0
 28 82  1  0
 28 83  1  0
 29 84  1  0
 29 85  1  0
 30 86  1  0
 30 87  1  0
 31 62  1  0
 33 88  1  0
 33 89  1  0
 33 90  1  0
 34 91  1  0
 34 92  1  0
 35 93  1  0
 35 94  1  0
 35 95  1  0
 36 96  1  0
 36 97  1  0
 36 98  1  0
 37 99  1  0
 38100  1  0
 38101  1  0
 39102  1  0
 39103  1  0
 41104  1  0
 41105  1  0
 41106  1  0
 42107  1  0
 42108  1  0
 42109  1  0
 43110  1  0
 43111  1  0
 44112  1  0
 44113  1  0
 44114  1  0
 45115  1  0
 45116  1  0
 45117  1  0
 47 63  1  0
 48 64  1  0
 49 65  1  0
 50 66  1  0
 51 67  1  0
 52 68  1  0
 54 69  1  0
 55 70  1  0
 56 71  1  0
 57 72  1  0
M  CHG  3   4  -1  10  -1  15  -1
M  END
>  <LF dG>
-8.562

>  <LF VSscore>
-15.14

>  <LF Rank Score>
-9.768

>  <LF LE>
-0.148

>  <LF Structure Name>
C:\Users\Odara\AppData\Local\Temp\LeadFinder_6148_1\Ligand_1.sdf

>  <LF SDF id>
0

>  <LF Pose rank>
0

>  <LF version>
2001 1, 19 January 2019

>  <PUBCHEM_COMPOUND_CID>
656656

>  <PUBCHEM_COMPOUND_CANONICALIZED>
1

>  <PUBCHEM_CACTVS_COMPLEXITY>
1730

>  <PUBCHEM_CACTVS_HBOND_ACCEPTOR>
18

>  <PUBCHEM_CACTVS_HBOND_DONOR>
10

>  <PUBCHEM_CACTVS_ROTATABLE_BOND>
7

>  <PUBCHEM_CACTVS_SUBSKEYS>
AAADcfB/PgAAAAAAAAAAAAAAAAAAAAAAAAA0aMGCAAAAAADAAAAAGgAQCAAADxSwgAMCCAAABgCIAqDSCAIAAAAgAAAACAFAAEgREBYAAQQiQAAFoAAPAQPK7PzPgAAAAAAAAADAAAYAADAAAAAAAAAAAA==

>  <PUBCHEM_IUPAC_OPENEYE_NAME>
(2S,3S,4S,5R,6R)-6-[(2S,3R,4S,5S,6S)-2-[[(3S,4aR,6aR,6bS,8aS,11S,12aR,14aR,14bS)-11-carboxy-4,4,6a,6b,8a,11,14b-heptamethyl-14-oxo-2,3,4a,5,6,7,8,9,10,12,12a,14a-dodecahydro-1H-picen-3-yl]oxy]-6-carbo

>  <PUBCHEM_IUPAC_CAS_NAME>
(2S,3S,4S,5R,6R)-6-[[(2S,3R,4S,5S,6S)-2-[[(3S,4aR,6aR,6bS,8aS,11S,12aR,14aR,14bS)-11-carboxy-4,4,6a,6b,8a,11,14b-heptamethyl-14-oxo-2,3,4a,5,6,7,8,9,10,12,12a,14a-dodecahydro-1H-picen-3-yl]oxy]-6-carb

>  <PUBCHEM_IUPAC_NAME_MARKUP>
(2<I>S</I>,3<I>S</I>,4<I>S</I>,5<I>R</I>,6<I>R</I>)-6-[(2<I>S</I>,3<I>R</I>,4<I>S</I>,5<I>S</I>,6<I>S</I>)-2-[[(3<I>S</I>,4<I>a</I><I>R</I>,6<I>a</I><I>R</I>,6<I>b</I><I>S</I>,8<I>a</I><I>S</I>,11<I>S

>  <PUBCHEM_IUPAC_NAME>
(2S,3S,4S,5R,6R)-6-[(2S,3R,4S,5S,6S)-2-[[(3S,4aR,6aR,6bS,8aS,11S,12aR,14aR,14bS)-11-carboxy-4,4,6a,6b,8a,11,14b-heptamethyl-14-oxo-2,3,4a,5,6,7,8,9,10,12,12a,14a-dodecahydro-1H-picen-3-yl]oxy]-6-carbo

>  <PUBCHEM_IUPAC_SYSTEMATIC_NAME>
(2S,3S,4S,5R,6R)-6-[(2S,3R,4S,5S,6S)-2-[[(3S,4aR,6aR,6bS,8aS,11S,12aR,14aR,14bS)-11-carboxy-4,4,6a,6b,8a,11,14b-heptamethyl-14-oxidanylidene-2,3,4a,5,6,7,8,9,10,12,12a,14a-dodecahydro-1H-picen-3-yl]ox

>  <PUBCHEM_IUPAC_TRADITIONAL_NAME>
(2S,3S,4S,5R,6R)-6-[(2S,3R,4S,5S,6S)-2-[[(3S,4aR,6aR,6bS,8aS,11S,12aR,14aR,14bS)-11-carboxy-14-keto-4,4,6a,6b,8a,11,14b-heptamethyl-2,3,4a,5,6,7,8,9,10,12,12a,14a-dodecahydro-1H-picen-3-yl]oxy]-6-carb

>  <PUBCHEM_IUPAC_INCHI>
InChI=1S/C42H62O16.2H3N/c1-37(2)21-8-11-42(7)31(20(43)16-18-19-17-39(4,36(53)54)13-12-38(19,3)14-15-41(18,42)6)40(21,5)10-9-22(37)55-35-30(26(47)25(46)29(57-35)33(51)52)58-34-27(48)23(44)24(45)28(56-3

>  <PUBCHEM_IUPAC_INCHIKEY>
SPPIIOPGDLITJE-VLQRKCJKSA-N

>  <PUBCHEM_EXACT_MASS>
856.456884

>  <PUBCHEM_MOLECULAR_FORMULA>
C42H68N2O16

>  <PUBCHEM_MOLECULAR_WEIGHT>
857

>  <PUBCHEM_OPENEYE_CAN_SMILES>
CC1(C2CCC3(C(C2(CCC1OC4C(C(C(C(O4)C(=O)O)O)O)OC5C(C(C(C(O5)C(=O)O)O)O)O)C)C(=O)C=C6C3(CCC7(C6CC(CC7)(C)C(=O)O)C)C)C)C.N.N

>  <PUBCHEM_OPENEYE_ISO_SMILES>
C[C@]12CC[C@](C[C@H]1C3=CC(=O)[C@@H]4[C@]5(CC[C@@H](C([C@@H]5CC[C@]4([C@@]3(CC2)C)C)(C)C)O[C@@H]6[C@@H]([C@H]([C@@H]([C@H](O6)C(=O)O)O)O)O[C@H]7[C@@H]([C@H]([C@@H]([C@H](O7)C(=O)O)O)O)O)C)(C)C(=O)O.N.

>  <PUBCHEM_CACTVS_TPSA>
269

>  <PUBCHEM_MONOISOTOPIC_WEIGHT>
856.456884

>  <PUBCHEM_TOTAL_CHARGE>
0

>  <PUBCHEM_HEAVY_ATOM_COUNT>
60

>  <PUBCHEM_ATOM_DEF_STEREO_COUNT>
19

>  <PUBCHEM_ATOM_UDEF_STEREO_COUNT>
0

>  <PUBCHEM_BOND_DEF_STEREO_COUNT>
0

>  <PUBCHEM_BOND_UDEF_STEREO_COUNT>
0

>  <PUBCHEM_ISOTOPIC_ATOM_COUNT>
0

>  <PUBCHEM_COMPONENT_COUNT>
3

>  <PUBCHEM_CACTVS_TAUTO_COUNT>
-1

>  <PUBCHEM_COORDINATE_TYPE>
1
5
255

>  <PUBCHEM_BONDANNOTATIONS>
33  1  5
49  1  6
56  12  6
57  13  5
59  14  6
19  35  5
20  37  5
21  61  6
22  38  6
23  62  6
28  67  5
29  46  5
42  47  6
52  55  5
58  60  5
50  6  6
54  6  5
51  7  5
53  8  6

>  <Favorite_cresset>
false

>  <MW_cresset>
819.9

>  <#Atoms_cresset>
58

>  <SlogP_cresset>
4.1

>  <TPSA_cresset>
275.5

>  <Flexibility_cresset>
17.3

>  <#RB_cresset>
12

>  <Rof5_cresset>
2

>  <Filename_cresset>
drag.37_27.sdf

>  <Confs_cresset>
0

>  <Poses_cresset>
0

$$$$
Site3d_Diammonium_D
  xed2sdf_05210316543D
 
117123  0  0  1  0  0  0  0  0999 V2000
  -52.0486   -4.3064   21.8171 O   0  0  0  0  0  0  0  0  0  0  0  0
  -46.8801   -7.0130   23.0439 O   0  0  0  0  0  0  0  0  0  0  0  0
  -54.1841   -3.2529   22.0268 O   0  0  0  0  0  0  0  0  0  0  0  0
  -42.7610   -9.2686   20.8008 O   0  5  0  0  0  0  0  0  0  0  0  0
  -41.7105  -11.2714   20.5033 O   0  0  0  0  0  0  0  0  0  0  0  0
  -53.1716   -3.2826   19.2834 O   0  0  0  0  0  0  0  0  0  0  0  0
  -53.3058   -0.4545   18.9942 O   0  0  0  0  0  0  0  0  0  0  0  0
  -55.4306    0.0733   20.9391 O   0  0  0  0  0  0  0  0  0  0  0  0
  -51.6411   -5.1273   19.3303 O   0  0  0  0  0  0  0  0  0  0  0  0
  -56.9884   -3.2568   22.1047 O   0  5  0  0  0  0  0  0  0  0  0  0
  -56.8818   -1.3035   23.2754 O   0  0  0  0  0  0  0  0  0  0  0  0
  -54.0757   -4.7281   17.2945 O   0  0  0  0  0  0  0  0  0  0  0  0
  -51.9395   -5.7010   15.2436 O   0  0  0  0  0  0  0  0  0  0  0  0
  -49.7603   -6.8313   16.6670 O   0  0  0  0  0  0  0  0  0  0  0  0
  -49.3561   -4.1380   20.0870 O   0  5  0  0  0  0  0  0  0  0  0  0
  -48.1025   -5.5549   18.8098 O   0  0  0  0  0  0  0  0  0  0  0  0
  -49.2681   -9.1827   21.4229 C   0  0  0  0  0  0  0  0  0  0  0  0
  -49.8220   -7.0164   22.9270 C   0  0  0  0  0  0  0  0  0  0  0  0
  -48.8860   -7.7445   21.9001 C   0  0  0  0  0  0  0  0  0  0  0  0
  -48.3189   -9.5888   20.2268 C   0  0  0  0  0  0  0  0  0  0  0  0
  -51.3049   -7.1627   22.4451 C   0  0  0  0  0  0  0  0  0  0  0  0
  -50.7717   -9.2161   21.0390 C   0  0  0  0  0  0  0  0  0  0  0  0
  -52.3733   -6.3146   23.2150 C   0  0  0  0  0  0  0  0  0  0  0  0
  -51.7034   -8.6266   22.1224 C   0  0  0  0  0  0  0  0  0  0  0  0
  -46.8897   -9.6075   20.7556 C   0  0  0  0  0  0  0  0  0  0  0  0
  -45.8416  -10.5952   20.2723 C   0  0  0  0  0  0  0  0  0  0  0  0
  -46.3785  -11.9390   19.7100 C   0  0  0  0  0  0  0  0  0  0  0  0
  -48.7643  -10.9344   19.5766 C   0  0  0  0  0  0  0  0  0  0  0  0
  -49.4859   -5.4973   22.8954 C   0  0  0  0  0  0  0  0  0  0  0  0
  -47.6463  -11.7133   18.8499 C   0  0  0  0  0  0  0  0  0  0  0  0
  -51.9477   -4.8211   23.1649 C   0  0  0  0  0  0  0  0  0  0  0  0
  -47.4085   -7.7583   22.2420 C   0  0  0  0  0  0  0  0  0  0  0  0
  -49.0594  -10.2019   22.5803 C   0  0  0  0  0  0  0  0  0  0  0  0
  -50.4974   -4.6004   23.6499 C   0  0  0  0  0  0  0  0  0  0  0  0
  -49.5372   -7.5390   24.3621 C   0  0  0  0  0  0  0  0  0  0  0  0
  -48.2322   -8.5365   19.0880 C   0  0  0  0  0  0  0  0  0  0  0  0
  -46.5015   -8.7575   21.7152 C   0  0  0  0  0  0  0  0  0  0  0  0
  -44.8970   -9.9220   19.2544 C   0  0  0  0  0  0  0  0  0  0  0  0
  -45.3155  -12.6320   18.8113 C   0  0  0  0  0  0  0  0  0  0  0  0
  -43.5920  -10.7486   19.1198 C   0  0  0  0  0  0  0  0  0  0  0  0
  -53.7554   -6.4233   22.5311 C   0  0  0  0  0  0  0  0  0  0  0  0
  -52.6250   -6.7530   24.6773 C   0  0  0  0  0  0  0  0  0  0  0  0
  -43.8679  -12.2715   19.2125 C   0  0  0  0  0  0  0  0  0  0  0  0
  -46.7017  -12.8771   20.8925 C   0  0  0  0  0  0  0  0  0  0  0  0
  -42.9451  -10.4120   17.7632 C   0  0  0  0  0  0  0  0  0  0  0  0
  -42.6138  -10.4053   20.2261 C   0  0  0  0  0  0  0  0  0  0  0  0
  -52.7859   -3.0661   21.7080 C   0  0  0  0  0  0  0  0  0  0  0  0
  -52.6521   -2.4188   20.3118 C   0  0  0  0  0  0  0  0  0  0  0  0
  -53.3828   -1.0610   20.2925 C   0  0  0  0  0  0  0  0  0  0  0  0
  -54.9534   -2.0285   22.0631 C   0  0  0  0  0  0  0  0  0  0  0  0
  -54.8464   -1.2238   20.7494 C   0  0  0  0  0  0  0  0  0  0  0  0
  -52.1347   -3.9950   18.5791 C   0  0  0  0  0  0  0  0  0  0  0  0
  -56.3815   -2.2098   22.5231 C   0  0  0  0  0  0  0  0  0  0  0  0
  -52.6726   -4.4413   17.2019 C   0  0  0  0  0  0  0  0  0  0  0  0
  -51.9217   -5.6832   16.6783 C   0  0  0  0  0  0  0  0  0  0  0  0
  -50.4752   -5.7449   18.7385 C   0  0  0  0  0  0  0  0  0  0  0  0
  -50.4724   -5.7032   17.1960 C   0  0  0  0  0  0  0  0  0  0  0  0
  -49.2137   -5.0994   19.2539 C   0  0  0  0  0  0  0  0  0  0  0  0
  -49.0629   -7.1251   21.1350 H   0  0  0  0  0  0  0  0  0  0  0  0
  -51.3173   -6.6996   21.5590 H   0  0  0  0  0  0  0  0  0  0  0  0
  -45.3435  -10.8549   21.0995 H   0  0  0  0  0  0  0  0  0  0  0  0
  -52.5711   -4.3364   23.7781 H   0  0  0  0  0  0  0  0  0  0  0  0
  -52.3791   -2.4429   22.3761 H   0  0  0  0  0  0  0  0  0  0  0  0
  -51.6804   -2.2729   20.1249 H   0  0  0  0  0  0  0  0  0  0  0  0
  -52.9255   -0.4498   20.9390 H   0  0  0  0  0  0  0  0  0  0  0  0
  -54.5246   -1.4730   22.7756 H   0  0  0  0  0  0  0  0  0  0  0  0
  -55.3361   -1.7291   20.0389 H   0  0  0  0  0  0  0  0  0  0  0  0
  -51.3582   -3.3770   18.4549 H   0  0  0  0  0  0  0  0  0  0  0  0
  -52.5234   -3.6921   16.5566 H   0  0  0  0  0  0  0  0  0  0  0  0
  -52.3862   -6.5012   17.0184 H   0  0  0  0  0  0  0  0  0  0  0  0
  -50.5102   -6.7067   19.0094 H   0  0  0  0  0  0  0  0  0  0  0  0
  -50.0082   -4.8721   16.8897 H   0  0  0  0  0  0  0  0  0  0  0  0
  -53.6878   -1.0538   18.2843 H   0  0  0  0  0  0  0  0  0  0  0  0
  -56.4298    0.0134   21.0404 H   0  0  0  0  0  0  0  0  0  0  0  0
  -54.6174   -3.8839   17.3730 H   0  0  0  0  0  0  0  0  0  0  0  0
  -51.8279   -6.6353   14.8875 H   0  0  0  0  0  0  0  0  0  0  0  0
  -50.3610   -7.4153   16.1101 H   0  0  0  0  0  0  0  0  0  0  0  0
  -51.0358  -10.1664   20.8747 H   0  0  0  0  0  0  0  0  0  0  0  0
  -50.8773   -8.6467   20.2235 H   0  0  0  0  0  0  0  0  0  0  0  0
  -52.6476   -8.6474   21.7943 H   0  0  0  0  0  0  0  0  0  0  0  0
  -51.6171   -9.1753   22.9537 H   0  0  0  0  0  0  0  0  0  0  0  0
  -49.4872  -10.7358   18.9148 H   0  0  0  0  0  0  0  0  0  0  0  0
  -49.0661  -11.5202   20.3289 H   0  0  0  0  0  0  0  0  0  0  0  0
  -49.4553   -5.2024   21.9402 H   0  0  0  0  0  0  0  0  0  0  0  0
  -48.6088   -5.3905   23.3634 H   0  0  0  0  0  0  0  0  0  0  0  0
  -48.0064  -12.6053   18.5773 H   0  0  0  0  0  0  0  0  0  0  0  0
  -47.3699  -11.1577   18.0658 H   0  0  0  0  0  0  0  0  0  0  0  0
  -49.9357  -10.6312   22.7983 H   0  0  0  0  0  0  0  0  0  0  0  0
  -48.4021  -10.9018   22.2998 H   0  0  0  0  0  0  0  0  0  0  0  0
  -48.7055   -9.7279   23.3868 H   0  0  0  0  0  0  0  0  0  0  0  0
  -50.2496   -3.6421   23.5071 H   0  0  0  0  0  0  0  0  0  0  0  0
  -50.4591   -4.8428   24.6193 H   0  0  0  0  0  0  0  0  0  0  0  0
  -49.2069   -6.7813   24.9249 H   0  0  0  0  0  0  0  0  0  0  0  0
  -50.3761   -7.9123   24.7583 H   0  0  0  0  0  0  0  0  0  0  0  0
  -48.8452   -8.2601   24.3267 H   0  0  0  0  0  0  0  0  0  0  0  0
  -48.4806   -8.9718   18.2228 H   0  0  0  0  0  0  0  0  0  0  0  0
  -48.8598   -7.7813   19.2773 H   0  0  0  0  0  0  0  0  0  0  0  0
  -47.3002   -8.1785   19.0306 H   0  0  0  0  0  0  0  0  0  0  0  0
  -45.5697   -8.8134   22.0739 H   0  0  0  0  0  0  0  0  0  0  0  0
  -44.6767   -8.9974   19.5651 H   0  0  0  0  0  0  0  0  0  0  0  0
  -45.3503   -9.8767   18.3641 H   0  0  0  0  0  0  0  0  0  0  0  0
  -45.4658  -12.3532   17.8627 H   0  0  0  0  0  0  0  0  0  0  0  0
  -45.4218  -13.6197   18.9258 H   0  0  0  0  0  0  0  0  0  0  0  0
  -54.4264   -6.7406   23.2014 H   0  0  0  0  0  0  0  0  0  0  0  0
  -54.0291   -5.5286   22.1782 H   0  0  0  0  0  0  0  0  0  0  0  0
  -53.7049   -7.0713   21.7711 H   0  0  0  0  0  0  0  0  0  0  0  0
  -53.5918   -6.9840   24.7861 H   0  0  0  0  0  0  0  0  0  0  0  0
  -52.0619   -7.5508   24.8926 H   0  0  0  0  0  0  0  0  0  0  0  0
  -52.3840   -6.0073   25.2988 H   0  0  0  0  0  0  0  0  0  0  0  0
  -43.2355  -12.7527   18.6054 H   0  0  0  0  0  0  0  0  0  0  0  0
  -43.7379  -12.5467   20.1649 H   0  0  0  0  0  0  0  0  0  0  0  0
  -46.1543  -13.7097   20.8066 H   0  0  0  0  0  0  0  0  0  0  0  0
  -46.4859  -12.4199   21.7551 H   0  0  0  0  0  0  0  0  0  0  0  0
  -47.6743  -13.1097   20.8817 H   0  0  0  0  0  0  0  0  0  0  0  0
  -42.0288  -10.0442   17.9217 H   0  0  0  0  0  0  0  0  0  0  0  0
  -42.8843  -11.2386   17.2038 H   0  0  0  0  0  0  0  0  0  0  0  0
  -43.5026   -9.7345   17.2833 H   0  0  0  0  0  0  0  0  0  0  0  0
  2 32  2  0
  3 47  1  0
  3 50  1  0
  4 46  1  0
  5 46  2  0
  9 52  1  0
  9 56  1  0
 10 53  1  0
 11 53  2  0
 15 58  1  0
 16 58  2  0
 17 19  1  0
 17 20  1  0
 17 22  1  0
 17 33  1  0
 18 19  1  0
 18 21  1  0
 18 29  1  0
 18 35  1  0
 19 32  1  0
 20 25  1  0
 20 28  1  0
 20 36  1  0
 21 23  1  0
 21 24  1  0
 22 24  1  0
 23 31  1  0
 23 41  1  0
 23 42  1  0
 25 26  1  0
 25 37  2  0
 26 27  1  0
 26 38  1  0
 27 30  1  0
 27 39  1  0
 27 44  1  0
 28 30  1  0
 29 34  1  0
 31  1  1  0
 31 34  1  0
 32 37  1  0
 38 40  1  0
 39 43  1  0
 40 43  1  0
 40 45  1  0
 40 46  1  0
 47  1  1  0
 47 48  1  0
 48  6  1  0
 48 49  1  0
 49  7  1  0
 49 51  1  0
 50 51  1  0
 50 53  1  0
 51  8  1  0
 52  6  1  0
 52 54  1  0
 54 12  1  0
 54 55  1  0
 55 13  1  0
 55 57  1  0
 56 57  1  0
 56 58  1  0
 57 14  1  0
  7 73  1  0
  8 74  1  0
 12 75  1  0
 13 76  1  0
 14 77  1  0
 19 59  1  0
 21 60  1  0
 22 78  1  0
 22 79  1  0
 24 80  1  0
 24 81  1  0
 26 61  1  0
 28 82  1  0
 28 83  1  0
 29 84  1  0
 29 85  1  0
 30 86  1  0
 30 87  1  0
 31 62  1  0
 33 88  1  0
 33 89  1  0
 33 90  1  0
 34 91  1  0
 34 92  1  0
 35 93  1  0
 35 94  1  0
 35 95  1  0
 36 96  1  0
 36 97  1  0
 36 98  1  0
 37 99  1  0
 38100  1  0
 38101  1  0
 39102  1  0
 39103  1  0
 41104  1  0
 41105  1  0
 41106  1  0
 42107  1  0
 42108  1  0
 42109  1  0
 43110  1  0
 43111  1  0
 44112  1  0
 44113  1  0
 44114  1  0
 45115  1  0
 45116  1  0
 45117  1  0
 47 63  1  0
 48 64  1  0
 49 65  1  0
 50 66  1  0
 51 67  1  0
 52 68  1  0
 54 69  1  0
 55 70  1  0
 56 71  1  0
 57 72  1  0
M  CHG  3   4  -1  10  -1  15  -1
M  END
>  <LF dG>
-8.956

>  <LF VSscore>
-15.077

>  <LF Rank Score>
-9.754

>  <LF LE>
-0.154

>  <LF Structure Name>
C:\Users\Odara\AppData\Local\Temp\LeadFinder_8224_1\Ligand_1.sdf

>  <LF SDF id>
0

>  <LF Pose rank>
0

>  <LF version>
2001 1, 19 January 2019

>  <PUBCHEM_COMPOUND_CID>
656656

>  <PUBCHEM_COMPOUND_CANONICALIZED>
1

>  <PUBCHEM_CACTVS_COMPLEXITY>
1730

>  <PUBCHEM_CACTVS_HBOND_ACCEPTOR>
18

>  <PUBCHEM_CACTVS_HBOND_DONOR>
10

>  <PUBCHEM_CACTVS_ROTATABLE_BOND>
7

>  <PUBCHEM_CACTVS_SUBSKEYS>
AAADcfB/PgAAAAAAAAAAAAAAAAAAAAAAAAA0aMGCAAAAAADAAAAAGgAQCAAADxSwgAMCCAAABgCIAqDSCAIAAAAgAAAACAFAAEgREBYAAQQiQAAFoAAPAQPK7PzPgAAAAAAAAADAAAYAADAAAAAAAAAAAA==

>  <PUBCHEM_IUPAC_OPENEYE_NAME>
(2S,3S,4S,5R,6R)-6-[(2S,3R,4S,5S,6S)-2-[[(3S,4aR,6aR,6bS,8aS,11S,12aR,14aR,14bS)-11-carboxy-4,4,6a,6b,8a,11,14b-heptamethyl-14-oxo-2,3,4a,5,6,7,8,9,10,12,12a,14a-dodecahydro-1H-picen-3-yl]oxy]-6-carbo

>  <PUBCHEM_IUPAC_CAS_NAME>
(2S,3S,4S,5R,6R)-6-[[(2S,3R,4S,5S,6S)-2-[[(3S,4aR,6aR,6bS,8aS,11S,12aR,14aR,14bS)-11-carboxy-4,4,6a,6b,8a,11,14b-heptamethyl-14-oxo-2,3,4a,5,6,7,8,9,10,12,12a,14a-dodecahydro-1H-picen-3-yl]oxy]-6-carb

>  <PUBCHEM_IUPAC_NAME_MARKUP>
(2<I>S</I>,3<I>S</I>,4<I>S</I>,5<I>R</I>,6<I>R</I>)-6-[(2<I>S</I>,3<I>R</I>,4<I>S</I>,5<I>S</I>,6<I>S</I>)-2-[[(3<I>S</I>,4<I>a</I><I>R</I>,6<I>a</I><I>R</I>,6<I>b</I><I>S</I>,8<I>a</I><I>S</I>,11<I>S

>  <PUBCHEM_IUPAC_NAME>
(2S,3S,4S,5R,6R)-6-[(2S,3R,4S,5S,6S)-2-[[(3S,4aR,6aR,6bS,8aS,11S,12aR,14aR,14bS)-11-carboxy-4,4,6a,6b,8a,11,14b-heptamethyl-14-oxo-2,3,4a,5,6,7,8,9,10,12,12a,14a-dodecahydro-1H-picen-3-yl]oxy]-6-carbo

>  <PUBCHEM_IUPAC_SYSTEMATIC_NAME>
(2S,3S,4S,5R,6R)-6-[(2S,3R,4S,5S,6S)-2-[[(3S,4aR,6aR,6bS,8aS,11S,12aR,14aR,14bS)-11-carboxy-4,4,6a,6b,8a,11,14b-heptamethyl-14-oxidanylidene-2,3,4a,5,6,7,8,9,10,12,12a,14a-dodecahydro-1H-picen-3-yl]ox

>  <PUBCHEM_IUPAC_TRADITIONAL_NAME>
(2S,3S,4S,5R,6R)-6-[(2S,3R,4S,5S,6S)-2-[[(3S,4aR,6aR,6bS,8aS,11S,12aR,14aR,14bS)-11-carboxy-14-keto-4,4,6a,6b,8a,11,14b-heptamethyl-2,3,4a,5,6,7,8,9,10,12,12a,14a-dodecahydro-1H-picen-3-yl]oxy]-6-carb

>  <PUBCHEM_IUPAC_INCHI>
InChI=1S/C42H62O16.2H3N/c1-37(2)21-8-11-42(7)31(20(43)16-18-19-17-39(4,36(53)54)13-12-38(19,3)14-15-41(18,42)6)40(21,5)10-9-22(37)55-35-30(26(47)25(46)29(57-35)33(51)52)58-34-27(48)23(44)24(45)28(56-3

>  <PUBCHEM_IUPAC_INCHIKEY>
SPPIIOPGDLITJE-VLQRKCJKSA-N

>  <PUBCHEM_EXACT_MASS>
856.456884

>  <PUBCHEM_MOLECULAR_FORMULA>
C42H68N2O16

>  <PUBCHEM_MOLECULAR_WEIGHT>
857

>  <PUBCHEM_OPENEYE_CAN_SMILES>
CC1(C2CCC3(C(C2(CCC1OC4C(C(C(C(O4)C(=O)O)O)O)OC5C(C(C(C(O5)C(=O)O)O)O)O)C)C(=O)C=C6C3(CCC7(C6CC(CC7)(C)C(=O)O)C)C)C)C.N.N

>  <PUBCHEM_OPENEYE_ISO_SMILES>
C[C@]12CC[C@](C[C@H]1C3=CC(=O)[C@@H]4[C@]5(CC[C@@H](C([C@@H]5CC[C@]4([C@@]3(CC2)C)C)(C)C)O[C@@H]6[C@@H]([C@H]([C@@H]([C@H](O6)C(=O)O)O)O)O[C@H]7[C@@H]([C@H]([C@@H]([C@H](O7)C(=O)O)O)O)O)C)(C)C(=O)O.N.

>  <PUBCHEM_CACTVS_TPSA>
269

>  <PUBCHEM_MONOISOTOPIC_WEIGHT>
856.456884

>  <PUBCHEM_TOTAL_CHARGE>
0

>  <PUBCHEM_HEAVY_ATOM_COUNT>
60

>  <PUBCHEM_ATOM_DEF_STEREO_COUNT>
19

>  <PUBCHEM_ATOM_UDEF_STEREO_COUNT>
0

>  <PUBCHEM_BOND_DEF_STEREO_COUNT>
0

>  <PUBCHEM_BOND_UDEF_STEREO_COUNT>
0

>  <PUBCHEM_ISOTOPIC_ATOM_COUNT>
0

>  <PUBCHEM_COMPONENT_COUNT>
3

>  <PUBCHEM_CACTVS_TAUTO_COUNT>
-1

>  <PUBCHEM_COORDINATE_TYPE>
1
5
255

>  <PUBCHEM_BONDANNOTATIONS>
33  1  5
49  1  6
56  12  6
57  13  5
59  14  6
19  35  5
20  37  5
21  61  6
22  38  6
23  62  6
28  67  5
29  46  5
42  47  6
52  55  5
58  60  5
50  6  6
54  6  5
51  7  5
53  8  6

>  <Favorite_cresset>
false

>  <MW_cresset>
819.9

>  <#Atoms_cresset>
58

>  <SlogP_cresset>
4.1

>  <TPSA_cresset>
275.5

>  <Flexibility_cresset>
17.3

>  <#RB_cresset>
12

>  <Rof5_cresset>
2

>  <Filename_cresset>
drag.39_405.sdf

>  <Confs_cresset>
0

>  <Poses_cresset>
0

$$$$
Site3d_Baicalein_D
  xed2sdf_05210316543D
 
 30 32  0  0  0  0  0  0  0  0999 V2000
  -48.2759   -2.9201   15.9547 O   0  0  0  0  0  0  0  0  0  0  0  0
  -52.4929   -2.2461   13.6687 O   0  0  0  0  0  0  0  0  0  0  0  0
  -53.4049   -4.5411   14.7637 O   0  0  0  0  0  0  0  0  0  0  0  0
  -51.7979   -6.0181   16.4297 O   0  0  0  0  0  0  0  0  0  0  0  0
  -50.3879   -0.5401   13.4637 O   0  0  0  0  0  0  0  0  0  0  0  0
  -50.3619   -2.5111   14.7717 C   0  0  0  0  0  0  0  0  0  0  0  0
  -49.5509   -3.2691   15.6247 C   0  0  0  0  0  0  0  0  0  0  0  0
  -47.7499   -1.7751   15.4117 C   0  0  0  0  0  0  0  0  0  0  0  0
  -51.6669   -2.9501   14.4897 C   0  0  0  0  0  0  0  0  0  0  0  0
  -49.7849   -1.2971   14.2227 C   0  0  0  0  0  0  0  0  0  0  0  0
  -48.4519   -0.9621   14.5707 C   0  0  0  0  0  0  0  0  0  0  0  0
  -46.3479   -1.4521   15.7827 C   0  0  0  0  0  0  0  0  0  0  0  0
  -50.0509   -4.4371   16.1687 C   0  0  0  0  0  0  0  0  0  0  0  0
  -52.1359   -4.1151   15.0437 C   0  0  0  0  0  0  0  0  0  0  0  0
  -51.3269   -4.8651   15.8867 C   0  0  0  0  0  0  0  0  0  0  0  0
  -45.2529   -1.8701   15.0377 C   0  0  0  0  0  0  0  0  0  0  0  0
  -46.1169   -0.6991   16.9247 C   0  0  0  0  0  0  0  0  0  0  0  0
  -43.9759   -1.5471   15.4257 C   0  0  0  0  0  0  0  0  0  0  0  0
  -44.8389   -0.3771   17.3117 C   0  0  0  0  0  0  0  0  0  0  0  0
  -43.7649   -0.8021   16.5637 C   0  0  0  0  0  0  0  0  0  0  0  0
  -53.4349   -2.5871   13.6947 H   0  0  0  0  0  0  0  0  0  0  0  0
  -53.7739   -4.0861   13.9457 H   0  0  0  0  0  0  0  0  0  0  0  0
  -51.6959   -6.7921   15.7947 H   0  0  0  0  0  0  0  0  0  0  0  0
  -48.0289   -0.1351   14.2017 H   0  0  0  0  0  0  0  0  0  0  0  0
  -49.4739   -4.9811   16.7787 H   0  0  0  0  0  0  0  0  0  0  0  0
  -45.3969   -2.4111   14.2097 H   0  0  0  0  0  0  0  0  0  0  0  0
  -46.8919   -0.3861   17.4737 H   0  0  0  0  0  0  0  0  0  0  0  0
  -43.1959   -1.8551   14.8807 H   0  0  0  0  0  0  0  0  0  0  0  0
  -44.6889    0.1649   18.1387 H   0  0  0  0  0  0  0  0  0  0  0  0
  -42.8339   -0.5691   16.8447 H   0  0  0  0  0  0  0  0  0  0  0  0
  1  7  1  0
  1  8  1  0
  2  9  1  0
  3 14  1  0
  4 15  1  0
  5 10  2  0
  6  7  2  0
  6  9  1  0
  6 10  1  0
  7 13  1  0
  8 11  2  0
  8 12  1  0
  9 14  2  0
 10 11  1  0
 12 16  2  0
 12 17  1  0
 13 15  2  0
 14 15  1  0
 16 18  1  0
 17 19  2  0
 18 20  2  0
 19 20  1  0
  2 21  1  0
  3 22  1  0
  4 23  1  0
 11 24  1  0
 13 25  1  0
 16 26  1  0
 17 27  1  0
 18 28  1  0
 19 29  1  0
 20 30  1  0
M  END
>  <LF dG>
-7.652

>  <LF VSscore>
-8.705

>  <LF Rank Score>
-10.962

>  <LF LE>
-0.383

>  <LF Structure Name>
C:\Users\Odara\AppData\Local\Temp\LeadFinder_12008_1\Ligand_1.sdf

>  <LF SDF id>
0

>  <LF Pose rank>
0

>  <LF version>
2001 1, 19 January 2019

>  <PUBCHEM_COMPOUND_CID>
5281605

>  <PUBCHEM_COMPOUND_CANONICALIZED>
1

>  <PUBCHEM_CACTVS_COMPLEXITY>
413

>  <PUBCHEM_CACTVS_HBOND_ACCEPTOR>
5

>  <PUBCHEM_CACTVS_HBOND_DONOR>
3

>  <PUBCHEM_CACTVS_ROTATABLE_BOND>
1

>  <PUBCHEM_CACTVS_SUBSKEYS>
AAADccBwOAAAAAAAAAAAAAAAAAAAAAAAAAAwYIAAAAAAAACBQAAAGgAACAAADASAmAAwBoAABgCIAqBSAAACCAAkIAAIiAEGiMgNJzaGNRqCeWGl4BUJuQfK7LzOIQABCAAIQABCAAIQABCAAAAAAAAAAA==

>  <PUBCHEM_IUPAC_OPENEYE_NAME>
5,6,7-trihydroxy-2-phenyl-chromen-4-one

>  <PUBCHEM_IUPAC_CAS_NAME>
5,6,7-trihydroxy-2-phenyl-1-benzopyran-4-one

>  <PUBCHEM_IUPAC_NAME_MARKUP>
5,6,7-trihydroxy-2-phenylchromen-4-one

>  <PUBCHEM_IUPAC_NAME>
5,6,7-trihydroxy-2-phenylchromen-4-one

>  <PUBCHEM_IUPAC_SYSTEMATIC_NAME>
5,6,7-tris(oxidanyl)-2-phenyl-chromen-4-one

>  <PUBCHEM_IUPAC_TRADITIONAL_NAME>
5,6,7-trihydroxy-2-phenyl-chromone

>  <PUBCHEM_IUPAC_INCHI>
InChI=1S/C15H10O5/c16-9-6-11(8-4-2-1-3-5-8)20-12-7-10(17)14(18)15(19)13(9)12/h1-7,17-19H

>  <PUBCHEM_IUPAC_INCHIKEY>
FXNFHKRTJBSTCS-UHFFFAOYSA-N

>  <PUBCHEM_XLOGP3>
1.7

>  <PUBCHEM_EXACT_MASS>
270.052823

>  <PUBCHEM_MOLECULAR_FORMULA>
C15H10O5

>  <PUBCHEM_MOLECULAR_WEIGHT>
270.24

>  <PUBCHEM_OPENEYE_CAN_SMILES>
C1=CC=C(C=C1)C2=CC(=O)C3=C(O2)C=C(C(=C3O)O)O

>  <PUBCHEM_OPENEYE_ISO_SMILES>
C1=CC=C(C=C1)C2=CC(=O)C3=C(O2)C=C(C(=C3O)O)O

>  <PUBCHEM_CACTVS_TPSA>
87

>  <PUBCHEM_MONOISOTOPIC_WEIGHT>
270.052823

>  <PUBCHEM_TOTAL_CHARGE>
0

>  <PUBCHEM_HEAVY_ATOM_COUNT>
20

>  <PUBCHEM_ATOM_DEF_STEREO_COUNT>
0

>  <PUBCHEM_ATOM_UDEF_STEREO_COUNT>
0

>  <PUBCHEM_BOND_DEF_STEREO_COUNT>
0

>  <PUBCHEM_BOND_UDEF_STEREO_COUNT>
0

>  <PUBCHEM_ISOTOPIC_ATOM_COUNT>
0

>  <PUBCHEM_COMPONENT_COUNT>
1

>  <PUBCHEM_CACTVS_TAUTO_COUNT>
-1

>  <PUBCHEM_COORDINATE_TYPE>
1
5
255

>  <PUBCHEM_BONDANNOTATIONS>
1  7  8
1  8  8
10  11  8
12  16  8
12  17  8
13  15  8
14  15  8
16  18  8
17  19  8
18  20  8
19  20  8
6  10  8
6  7  8
6  9  8
7  13  8
8  11  8
9  14  8

>  <Preferred Pose_cresset>
true

>  <Favorite_cresset>
false

>  <MW_cresset>
270.2

>  <#Atoms_cresset>
20

>  <SlogP_cresset>
2.3

>  <TPSA_cresset>
87

>  <Flexibility_cresset>
1.7

>  <#RB_cresset>
4

>  <Rof5_cresset>
0

>  <Filename_cresset>
bicalein 3 dimer no water.sdf

>  <Confs_cresset>
0

>  <Poses_cresset>
10

>  <_cresset_fieldpoints>
    -5     -53.657654      -5.736095      16.784197     -9.5624
    -5     -45.084099      -3.593684      17.727219     -2.8622
    -5     -46.973766      -3.880613      17.219471     -3.6334
    -5     -52.083351      -0.637604      12.714529    -22.1762
    -5     -44.887516       1.424285      14.675951     -2.2869
    -6     -51.050320      -8.033184      14.589714      8.4035
    -6     -46.871887      -3.474163      13.123252      3.1129
    -6     -55.010349      -3.239250      12.929893     15.6096
    -6     -43.817738      -3.222026      12.814560      2.9985
    -6     -48.951736      -0.393801      17.768009      2.8801
    -6     -40.951824      -1.337763      15.482050      2.7688
    -6     -46.717278       0.884102      19.386307      2.9064
    -6     -42.462547       0.748947      18.845772      2.7503
    -7     -55.076477      -2.644875      15.313009     -1.4162
    -7     -53.180977      -3.806430      11.700889     -1.4274
    -7     -54.064369      -6.825926      15.538155     -1.4192
    -7     -49.504463      -5.108599      12.734328     -1.8218
    -7     -50.162071      -7.621521      17.428898     -1.2547
    -7     -51.740696      -1.789014      17.812469     -1.8106
    -7     -51.309555      -1.784569      11.444458     -1.6471
    -7     -47.542747      -3.423800      12.936775     -2.6033
    -7     -52.657547       0.166668      14.373714     -1.6687
    -7     -49.522400      -0.438324      17.422750     -2.6120
    -7     -46.798065      -4.222816      17.419601     -2.4575
    -7     -40.584290      -1.320921      15.481394     -0.9675
    -7     -43.459694      -3.290867      12.545835     -0.9870
    -7     -46.781567       1.037098      19.738535     -0.9924
    -7     -45.839035       1.442949      14.238285     -2.0539
    -7     -42.225746       0.887978      19.079369     -0.9671
    -8     -50.813164      -3.675587      15.333923      6.5997
    -8     -45.050133      -1.120565      16.172672      7.1513
    -8     -49.228973      -1.946792      14.885246      5.0059

$$$$
W_Site3d_Baicalein_D
  xed2sdf_05210316543D
 
 30 32  0  0  0  0  0  0  0  0999 V2000
  -50.0874   -3.5694   16.0196 O   0  0  0  0  0  0  0  0  0  0  0  0
  -46.0464   -1.1934   14.8046 O   0  0  0  0  0  0  0  0  0  0  0  0
  -47.5124    0.3796   13.1696 O   0  0  0  0  0  0  0  0  0  0  0  0
  -50.2244    0.0026   12.9466 O   0  0  0  0  0  0  0  0  0  0  0  0
  -46.0934   -3.2734   16.5526 O   0  0  0  0  0  0  0  0  0  0  0  0
  -48.0144   -2.4274   15.4606 C   0  0  0  0  0  0  0  0  0  0  0  0
  -49.3964   -2.6104   15.3426 C   0  0  0  0  0  0  0  0  0  0  0  0
  -49.3934   -4.4134   16.8496 C   0  0  0  0  0  0  0  0  0  0  0  0
  -47.3874   -1.4104   14.7216 C   0  0  0  0  0  0  0  0  0  0  0  0
  -47.3064   -3.3254   16.3556 C   0  0  0  0  0  0  0  0  0  0  0  0
  -48.0454   -4.3234   17.0396 C   0  0  0  0  0  0  0  0  0  0  0  0
  -50.1884   -5.4574   17.5456 C   0  0  0  0  0  0  0  0  0  0  0  0
  -50.1174   -1.7864   14.4976 C   0  0  0  0  0  0  0  0  0  0  0  0
  -48.1274   -0.6074   13.8896 C   0  0  0  0  0  0  0  0  0  0  0  0
  -49.4984   -0.7944   13.7736 C   0  0  0  0  0  0  0  0  0  0  0  0
  -50.9734   -5.1924   18.6606 C   0  0  0  0  0  0  0  0  0  0  0  0
  -50.1504   -6.7564   17.0636 C   0  0  0  0  0  0  0  0  0  0  0  0
  -51.6874   -6.1954   19.2706 C   0  0  0  0  0  0  0  0  0  0  0  0
  -50.8654   -7.7584   17.6736 C   0  0  0  0  0  0  0  0  0  0  0  0
  -51.6354   -7.4804   18.7796 C   0  0  0  0  0  0  0  0  0  0  0  0
  -45.5874   -1.3114   13.9216 H   0  0  0  0  0  0  0  0  0  0  0  0
  -46.6654    0.0486   12.7396 H   0  0  0  0  0  0  0  0  0  0  0  0
  -50.3224   -0.4074   12.0336 H   0  0  0  0  0  0  0  0  0  0  0  0
  -47.5814   -4.9584   17.6576 H   0  0  0  0  0  0  0  0  0  0  0  0
  -51.1054   -1.9144   14.4106 H   0  0  0  0  0  0  0  0  0  0  0  0
  -51.0174   -4.2624   19.0246 H   0  0  0  0  0  0  0  0  0  0  0  0
  -49.5934   -6.9674   16.2596 H   0  0  0  0  0  0  0  0  0  0  0  0
  -52.2484   -5.9904   20.0736 H   0  0  0  0  0  0  0  0  0  0  0  0
  -50.8254   -8.6914   17.3146 H   0  0  0  0  0  0  0  0  0  0  0  0
  -52.1554   -8.2084   19.2256 H   0  0  0  0  0  0  0  0  0  0  0  0
  1  7  1  0
  1  8  1  0
  2  9  1  0
  3 14  1  0
  4 15  1  0
  5 10  2  0
  6  7  2  0
  6  9  1  0
  6 10  1  0
  7 13  1  0
  8 11  2  0
  8 12  1  0
  9 14  2  0
 10 11  1  0
 12 16  2  0
 12 17  1  0
 13 15  2  0
 14 15  1  0
 16 18  1  0
 17 19  2  0
 18 20  2  0
 19 20  1  0
  2 21  1  0
  3 22  1  0
  4 23  1  0
 11 24  1  0
 13 25  1  0
 16 26  1  0
 17 27  1  0
 18 28  1  0
 19 29  1  0
 20 30  1  0
M  END
>  <LF dG>
-6.804

>  <LF VSscore>
-8.869

>  <LF Rank Score>
-10.73

>  <LF LE>
-0.34

>  <LF Structure Name>
C:\Users\Odara\AppData\Local\Temp\LeadFinder_13712_1\Ligand_1.sdf

>  <LF SDF id>
0

>  <LF Pose rank>
0

>  <LF version>
2001 1, 19 January 2019

>  <PUBCHEM_COMPOUND_CID>
5281605

>  <PUBCHEM_COMPOUND_CANONICALIZED>
1

>  <PUBCHEM_CACTVS_COMPLEXITY>
413

>  <PUBCHEM_CACTVS_HBOND_ACCEPTOR>
5

>  <PUBCHEM_CACTVS_HBOND_DONOR>
3

>  <PUBCHEM_CACTVS_ROTATABLE_BOND>
1

>  <PUBCHEM_CACTVS_SUBSKEYS>
AAADccBwOAAAAAAAAAAAAAAAAAAAAAAAAAAwYIAAAAAAAACBQAAAGgAACAAADASAmAAwBoAABgCIAqBSAAACCAAkIAAIiAEGiMgNJzaGNRqCeWGl4BUJuQfK7LzOIQABCAAIQABCAAIQABCAAAAAAAAAAA==

>  <PUBCHEM_IUPAC_OPENEYE_NAME>
5,6,7-trihydroxy-2-phenyl-chromen-4-one

>  <PUBCHEM_IUPAC_CAS_NAME>
5,6,7-trihydroxy-2-phenyl-1-benzopyran-4-one

>  <PUBCHEM_IUPAC_NAME_MARKUP>
5,6,7-trihydroxy-2-phenylchromen-4-one

>  <PUBCHEM_IUPAC_NAME>
5,6,7-trihydroxy-2-phenylchromen-4-one

>  <PUBCHEM_IUPAC_SYSTEMATIC_NAME>
5,6,7-tris(oxidanyl)-2-phenyl-chromen-4-one

>  <PUBCHEM_IUPAC_TRADITIONAL_NAME>
5,6,7-trihydroxy-2-phenyl-chromone

>  <PUBCHEM_IUPAC_INCHI>
InChI=1S/C15H10O5/c16-9-6-11(8-4-2-1-3-5-8)20-12-7-10(17)14(18)15(19)13(9)12/h1-7,17-19H

>  <PUBCHEM_IUPAC_INCHIKEY>
FXNFHKRTJBSTCS-UHFFFAOYSA-N

>  <PUBCHEM_XLOGP3>
1.7

>  <PUBCHEM_EXACT_MASS>
270.052823

>  <PUBCHEM_MOLECULAR_FORMULA>
C15H10O5

>  <PUBCHEM_MOLECULAR_WEIGHT>
270.24

>  <PUBCHEM_OPENEYE_CAN_SMILES>
C1=CC=C(C=C1)C2=CC(=O)C3=C(O2)C=C(C(=C3O)O)O

>  <PUBCHEM_OPENEYE_ISO_SMILES>
C1=CC=C(C=C1)C2=CC(=O)C3=C(O2)C=C(C(=C3O)O)O

>  <PUBCHEM_CACTVS_TPSA>
87

>  <PUBCHEM_MONOISOTOPIC_WEIGHT>
270.052823

>  <PUBCHEM_TOTAL_CHARGE>
0

>  <PUBCHEM_HEAVY_ATOM_COUNT>
20

>  <PUBCHEM_ATOM_DEF_STEREO_COUNT>
0

>  <PUBCHEM_ATOM_UDEF_STEREO_COUNT>
0

>  <PUBCHEM_BOND_DEF_STEREO_COUNT>
0

>  <PUBCHEM_BOND_UDEF_STEREO_COUNT>
0

>  <PUBCHEM_ISOTOPIC_ATOM_COUNT>
0

>  <PUBCHEM_COMPONENT_COUNT>
1

>  <PUBCHEM_CACTVS_TAUTO_COUNT>
-1

>  <PUBCHEM_COORDINATE_TYPE>
1
5
255

>  <PUBCHEM_BONDANNOTATIONS>
1  7  8
1  8  8
10  11  8
12  16  8
12  17  8
13  15  8
14  15  8
16  18  8
17  19  8
18  20  8
19  20  8
6  10  8
6  7  8
6  9  8
7  13  8
8  11  8
9  14  8

>  <Preferred Pose_cresset>
true

>  <Favorite_cresset>
false

>  <MW_cresset>
270.2

>  <#Atoms_cresset>
20

>  <SlogP_cresset>
2.3

>  <TPSA_cresset>
87

>  <Flexibility_cresset>
1.7

>  <#RB_cresset>
4

>  <Rof5_cresset>
0

>  <Filename_cresset>
bicalein 3 dimer with wter.sdf

>  <Confs_cresset>
0

>  <Poses_cresset>
10

>  <_cresset_fieldpoints>
    -5     -52.056587      -4.131563      15.777044     -3.3994
    -5     -48.904564       1.726865      12.899054    -10.9041
    -5     -45.026772      -1.697318      16.344421    -21.8466
    -5     -48.803635      -7.243344      20.092789     -2.2676
    -5     -53.147026      -5.791487      16.419117     -2.7650
    -5     -44.296997      -3.438560      17.193279    -16.2060
    -6     -50.298389      -1.616601      10.641567      9.0448
    -6     -50.238487      -2.330062      18.909164      2.7262
    -6     -48.698055      -6.084362      14.537890      3.4453
    -6     -52.268814      -3.675827      20.896320      2.8935
    -6     -45.346230      -1.072871      12.078726     16.5099
    -6     -49.265026      -8.861179      15.185402      3.0981
    -6     -52.015945     -10.489027      18.292618      2.7918
    -6     -53.511513      -7.727028      21.168362      2.7629
    -7     -49.449707      -2.056161      18.642040     -2.5788
    -7     -45.157158       1.049725      14.171288     -1.5318
    -7     -44.939072      -3.578571      14.291370     -1.7780
    -7     -45.400459      -0.950045      17.300735     -1.6289
    -7     -46.082287      -2.087532      11.719795     -1.4032
    -7     -48.725758       1.136484      11.115799     -1.4448
    -7     -52.638153      -0.547547      12.553659     -1.2582
    -7     -48.204323      -3.909166      12.394815     -1.8305
    -7     -49.195488       0.218685      17.270321     -1.8066
    -7     -48.438065      -5.652485      14.285199     -2.6256
    -7     -48.004494      -6.620317      19.748016     -2.0533
    -7     -53.774685      -7.826143      21.396803     -0.9673
    -7     -52.574505      -3.424454      21.050697     -0.9870
    -7     -52.160591     -10.814110      18.401039     -0.9670
    -7     -52.376461      -4.274043      15.453199     -2.4477
    -8     -48.770271      -1.636498      14.634836      6.6003
    -8     -50.910675      -6.473171      18.170609      7.1507
    -8     -48.370567      -3.399724      16.197289      5.0070

$$$$
Site3d_Baicalin_D
  xed2sdf_05210316543D
 
 49 52  0  0  1  0  0  0  0  0999 V2000
  -47.3485  -11.5044   20.6775 O   0  0  0  0  0  0  0  0  0  0  0  0
  -47.2425   -9.0614   20.2485 O   0  0  0  0  0  0  0  0  0  0  0  0
  -43.7705  -12.0384   18.4665 O   0  0  0  0  0  0  0  0  0  0  0  0
  -45.1625   -9.5054   18.4185 O   0  0  0  0  0  0  0  0  0  0  0  0
  -45.4025  -14.3194   19.1925 O   0  0  0  0  0  0  0  0  0  0  0  0
  -47.7225  -15.0964   20.5325 O   0  5  0  0  0  0  0  0  0  0  0  0
  -47.6735  -13.6614   22.3065 O   0  0  0  0  0  0  0  0  0  0  0  0
  -47.4895   -5.1984   17.6105 O   0  0  0  0  0  0  0  0  0  0  0  0
  -49.8355   -9.8074   19.5145 O   0  0  0  0  0  0  0  0  0  0  0  0
  -51.2275   -8.2144   17.8035 O   0  0  0  0  0  0  0  0  0  0  0  0
  -51.2555   -6.0524   16.3945 O   0  0  0  0  0  0  0  0  0  0  0  0
  -45.1675  -11.9194   18.7795 C   0  0  0  0  0  0  0  0  0  0  0  0
  -45.4595  -10.5294   19.3785 C   0  0  0  0  0  0  0  0  0  0  0  0
  -45.5925  -13.0194   19.7715 C   0  0  0  0  0  0  0  0  0  0  0  0
  -46.9365  -10.4104   19.8205 C   0  0  0  0  0  0  0  0  0  0  0  0
  -47.0715  -12.8304   20.1615 C   0  0  0  0  0  0  0  0  0  0  0  0
  -47.5235  -13.9504   21.0685 C   0  0  0  0  0  0  0  0  0  0  0  0
  -47.9685   -8.3044   19.4225 C   0  0  0  0  0  0  0  0  0  0  0  0
  -47.4205   -7.1354   18.9405 C   0  0  0  0  0  0  0  0  0  0  0  0
  -49.2595   -8.6644   19.0365 C   0  0  0  0  0  0  0  0  0  0  0  0
  -48.1095   -6.3214   18.0625 C   0  0  0  0  0  0  0  0  0  0  0  0
  -49.3995   -6.6864   17.6775 C   0  0  0  0  0  0  0  0  0  0  0  0
  -49.9685   -7.8634   18.1745 C   0  0  0  0  0  0  0  0  0  0  0  0
  -50.1025   -5.8164   16.7575 C   0  0  0  0  0  0  0  0  0  0  0  0
  -48.1505   -4.4134   16.6975 C   0  0  0  0  0  0  0  0  0  0  0  0
  -49.4205   -4.6724   16.2695 C   0  0  0  0  0  0  0  0  0  0  0  0
  -47.3935   -3.2414   16.1855 C   0  0  0  0  0  0  0  0  0  0  0  0
  -48.0165   -2.4084   15.2685 C   0  0  0  0  0  0  0  0  0  0  0  0
  -46.0985   -2.9364   16.5805 C   0  0  0  0  0  0  0  0  0  0  0  0
  -47.3715   -1.3064   14.7625 C   0  0  0  0  0  0  0  0  0  0  0  0
  -45.4535   -1.8334   16.0735 C   0  0  0  0  0  0  0  0  0  0  0  0
  -46.0885   -1.0164   15.1645 C   0  0  0  0  0  0  0  0  0  0  0  0
  -45.6925  -12.0274   17.9355 H   0  0  0  0  0  0  0  0  0  0  0  0
  -44.8775  -10.4144   20.1835 H   0  0  0  0  0  0  0  0  0  0  0  0
  -45.0235  -12.9474   20.5905 H   0  0  0  0  0  0  0  0  0  0  0  0
  -47.5385  -10.5414   19.0325 H   0  0  0  0  0  0  0  0  0  0  0  0
  -47.6265  -12.8904   19.3315 H   0  0  0  0  0  0  0  0  0  0  0  0
  -43.4205  -11.2024   18.0305 H   0  0  0  0  0  0  0  0  0  0  0  0
  -45.7005   -9.6264   17.5765 H   0  0  0  0  0  0  0  0  0  0  0  0
  -46.1975  -14.5964   18.6425 H   0  0  0  0  0  0  0  0  0  0  0  0
  -50.6245   -9.6044   20.1005 H   0  0  0  0  0  0  0  0  0  0  0  0
  -51.2945   -8.3454   16.8075 H   0  0  0  0  0  0  0  0  0  0  0  0
  -46.5015   -6.8694   19.2335 H   0  0  0  0  0  0  0  0  0  0  0  0
  -49.8675   -4.0594   15.6175 H   0  0  0  0  0  0  0  0  0  0  0  0
  -48.9485   -2.6124   14.9715 H   0  0  0  0  0  0  0  0  0  0  0  0
  -45.6295   -3.5234   17.2395 H   0  0  0  0  0  0  0  0  0  0  0  0
  -47.8355   -0.7154   14.1025 H   0  0  0  0  0  0  0  0  0  0  0  0
  -44.5205   -1.6234   16.3645 H   0  0  0  0  0  0  0  0  0  0  0  0
  -45.6165   -0.2144   14.7965 H   0  0  0  0  0  0  0  0  0  0  0  0
  1 15  1  0
  1 16  1  0
  2 18  1  0
  6 17  1  0
  7 17  2  0
  8 21  1  0
  8 25  1  0
  9 20  1  0
 10 23  1  0
 11 24  2  0
 12  3  1  0
 12 13  1  0
 12 14  1  0
 13  4  1  0
 13 15  1  0
 14  5  1  0
 14 16  1  0
 15  2  1  0
 16 17  1  0
 18 19  2  0
 18 20  1  0
 19 21  1  0
 20 23  2  0
 21 22  2  0
 22 23  1  0
 22 24  1  0
 24 26  1  0
 25 26  2  0
 25 27  1  0
 27 28  2  0
 27 29  1  0
 28 30  1  0
 29 31  2  0
 30 32  2  0
 31 32  1  0
  3 38  1  0
  4 39  1  0
  5 40  1  0
  9 41  1  0
 10 42  1  0
 12 33  1  0
 13 34  1  0
 14 35  1  0
 15 36  1  0
 16 37  1  0
 19 43  1  0
 26 44  1  0
 28 45  1  0
 29 46  1  0
 30 47  1  0
 31 48  1  0
 32 49  1  0
M  CHG  1   6  -1
M  END
>  <LF dG>
-7.379

>  <LF VSscore>
-10.175

>  <LF Rank Score>
-10.656

>  <LF LE>
-0.231

>  <LF Structure Name>
C:\Users\Odara\AppData\Local\Temp\LeadFinder_8440_1\Ligand_1.sdf

>  <LF SDF id>
0

>  <LF Pose rank>
0

>  <LF version>
2001 1, 19 January 2019

>  <PUBCHEM_COMPOUND_CID>
64982

>  <PUBCHEM_COMPOUND_CANONICALIZED>
1

>  <PUBCHEM_CACTVS_COMPLEXITY>
748

>  <PUBCHEM_CACTVS_HBOND_ACCEPTOR>
11

>  <PUBCHEM_CACTVS_HBOND_DONOR>
6

>  <PUBCHEM_CACTVS_ROTATABLE_BOND>
4

>  <PUBCHEM_CACTVS_SUBSKEYS>
AAADceB4PAAAAAAAAAAAAAAAAAAAAAAAAAA0YIEAAAAAAACBQAAAGgAACAAADBSwmAMwDoAABgCIAqDSCAICCAAkIAAIiAFGiMgdNzaGNR6ieWOl4BUPuQfK7LzOIQABCAAIQABCAAIQABCAAAAAAAAAAA==

>  <PUBCHEM_IUPAC_OPENEYE_NAME>
(2S,3S,4S,5R,6S)-6-(5,6-dihydroxy-4-oxo-2-phenyl-chromen-7-yl)oxy-3,4,5-trihydroxy-tetrahydropyran-2-carboxylic acid

>  <PUBCHEM_IUPAC_CAS_NAME>
(2S,3S,4S,5R,6S)-6-[(5,6-dihydroxy-4-oxo-2-phenyl-1-benzopyran-7-yl)oxy]-3,4,5-trihydroxy-2-oxanecarboxylic acid

>  <PUBCHEM_IUPAC_NAME_MARKUP>
(2<I>S</I>,3<I>S</I>,4<I>S</I>,5<I>R</I>,6<I>S</I>)-6-(5,6-dihydroxy-4-oxo-2-phenylchromen-7-yl)oxy-3,4,5-trihydroxyoxane-2-carboxylic acid

>  <PUBCHEM_IUPAC_NAME>
(2S,3S,4S,5R,6S)-6-(5,6-dihydroxy-4-oxo-2-phenylchromen-7-yl)oxy-3,4,5-trihydroxyoxane-2-carboxylic acid

>  <PUBCHEM_IUPAC_SYSTEMATIC_NAME>
(2S,3S,4S,5R,6S)-6-[5,6-bis(oxidanyl)-4-oxidanylidene-2-phenyl-chromen-7-yl]oxy-3,4,5-tris(oxidanyl)oxane-2-carboxylic acid

>  <PUBCHEM_IUPAC_TRADITIONAL_NAME>
(2S,3S,4S,5R,6S)-6-(5,6-dihydroxy-4-keto-2-phenyl-chromen-7-yl)oxy-3,4,5-trihydroxy-tetrahydropyran-2-carboxylic acid

>  <PUBCHEM_IUPAC_INCHI>
InChI=1S/C21H18O11/c22-9-6-10(8-4-2-1-3-5-8)30-11-7-12(14(23)15(24)13(9)11)31-21-18(27)16(25)17(26)19(32-21)20(28)29/h1-7,16-19,21,23-27H,(H,28,29)/t16-,17-,18+,19-,21+/m0/s1

>  <PUBCHEM_IUPAC_INCHIKEY>
IKIIZLYTISPENI-ZFORQUDYSA-N

>  <PUBCHEM_XLOGP3_AA>
1.1

>  <PUBCHEM_EXACT_MASS>
446.084911

>  <PUBCHEM_MOLECULAR_FORMULA>
C21H18O11

>  <PUBCHEM_MOLECULAR_WEIGHT>
446.4

>  <PUBCHEM_OPENEYE_CAN_SMILES>
C1=CC=C(C=C1)C2=CC(=O)C3=C(C(=C(C=C3O2)OC4C(C(C(C(O4)C(=O)O)O)O)O)O)O

>  <PUBCHEM_OPENEYE_ISO_SMILES>
C1=CC=C(C=C1)C2=CC(=O)C3=C(C(=C(C=C3O2)O[C@H]4[C@@H]([C@H]([C@@H]([C@H](O4)C(=O)O)O)O)O)O)O

>  <PUBCHEM_CACTVS_TPSA>
183

>  <PUBCHEM_MONOISOTOPIC_WEIGHT>
446.084911

>  <PUBCHEM_TOTAL_CHARGE>
0

>  <PUBCHEM_HEAVY_ATOM_COUNT>
32

>  <PUBCHEM_ATOM_DEF_STEREO_COUNT>
5

>  <PUBCHEM_ATOM_UDEF_STEREO_COUNT>
0

>  <PUBCHEM_BOND_DEF_STEREO_COUNT>
0

>  <PUBCHEM_BOND_UDEF_STEREO_COUNT>
0

>  <PUBCHEM_ISOTOPIC_ATOM_COUNT>
0

>  <PUBCHEM_COMPONENT_COUNT>
1

>  <PUBCHEM_CACTVS_TAUTO_COUNT>
-1

>  <PUBCHEM_COORDINATE_TYPE>
1
5
255

>  <PUBCHEM_BONDANNOTATIONS>
16  17  5
18  19  8
18  20  8
19  21  8
15  2  5
20  23  8
21  22  8
22  23  8
22  24  8
24  26  8
25  26  8
27  28  8
27  29  8
28  30  8
29  31  8
12  3  5
30  32  8
31  32  8
13  4  6
14  5  6
8  21  8
8  25  8

>  <Preferred Pose_cresset>
true

>  <Favorite_cresset>
false

>  <MW_cresset>
445.4

>  <#Atoms_cresset>
32

>  <SlogP_cresset>
1.1

>  <TPSA_cresset>
186

>  <Flexibility_cresset>
7.6

>  <#RB_cresset>
9

>  <Rof5_cresset>
1

>  <Filename_cresset>
bicalin 3 dimer no water.sdf

>  <Confs_cresset>
0

>  <Poses_cresset>
10

>  <_cresset_fieldpoints>
    -5     -48.202896     -15.260599      23.095123    -11.6226
    -5     -47.565784     -11.767042      22.561020    -15.2133
    -5     -43.601997     -13.942492      18.571354    -19.6114
    -5     -44.121834      -8.036665      19.069607     -9.7994
    -5     -48.210201     -16.091194      22.093330    -11.2645
    -5     -52.492786      -6.763929      17.670197    -17.2966
    -5     -47.580956      -3.633760      19.481121     -1.4993
    -5     -50.402428     -11.163502      18.287441     -5.6140
    -5     -52.733215      -5.182664      15.562122    -14.5206
    -5     -47.685417      -0.422129      17.859707     -2.5360
    -5     -45.549088      -3.598560      13.432302     -2.3177
    -6     -47.045486     -10.650169      16.796539     14.1452
    -6     -44.904068      -4.952275      18.651442      2.9334
    -6     -44.414703     -10.567539      16.515175     11.2287
    -6     -47.278584     -13.670289      17.361822     11.4302
    -6     -51.871155      -9.327448      21.464520      6.5920
    -6     -50.456833      -9.394541      15.442361      6.4981
    -6     -49.292862      -3.473180      19.096333      1.2211
    -6     -50.656975      -2.671509      13.995411      4.0261
    -6     -46.860802       1.183940      13.147587      2.8112
    -6     -43.417816      -3.110733      17.944912      2.8587
    -6     -43.375267       0.317937      15.463188      2.7668
    -7     -47.565826     -10.046431      16.492655     -2.9089
    -7     -47.416573     -13.662226      16.887276     -1.7527
    -7     -42.486099     -11.702350      20.547779     -1.6515
    -7     -44.228592     -10.338552      16.093643     -1.5874
    -7     -45.031662      -7.595952      16.848772     -2.0300
    -7     -44.520550     -14.462534      16.932491     -1.4588
    -7     -49.488308     -11.746079      17.948387     -2.3341
    -7     -48.321533     -15.159140      18.175034     -1.5711
    -7     -45.907379     -11.389834      22.745995     -2.2887
    -7     -45.621590     -16.276814      20.480839     -1.6417
    -7     -47.363689      -6.494606      14.800768     -2.4490
    -7     -49.442863      -3.423798      19.109798     -2.3788
    -7     -51.834030     -10.627611      18.224714     -1.5536
    -7     -44.780571      -7.772192      20.901886     -2.0204
    -7     -49.554237     -11.138831      21.511578     -2.5914
    -7     -50.258255      -7.952430      14.702720     -1.7969
    -7     -52.920200      -6.422626      18.238722     -1.6772
    -7     -49.932274      -5.712079      20.947731     -1.8366
    -7     -45.705475      -4.126368      13.326681     -1.7869
    -7     -48.031773      -0.520269      18.182571     -1.7850
    -7     -46.742397       1.549112      13.028622     -0.9669
    -7     -43.144958      -3.489712      18.056145     -1.0129
    -7     -43.062408       0.503301      15.468739     -0.9678
    -8     -46.010765     -11.790888      19.450424      5.1311
    -8     -48.673901      -7.468442      18.534668      6.6145
    -8     -46.739723      -2.126274      15.673062      7.1519
    -8     -48.451950      -3.549473      15.905088      5.5757
    -8     -49.086372      -5.615772      17.071754      5.0298

$$$$
W_Site3d_Baicalin_D
  xed2sdf_05210316543D
 
 49 52  0  0  1  0  0  0  0  0999 V2000
  -46.0350   -0.6247   17.7073 O   0  0  0  0  0  0  0  0  0  0  0  0
  -45.5740   -2.6857   16.4023 O   0  0  0  0  0  0  0  0  0  0  0  0
  -41.9640   -0.4697   18.8823 O   0  0  0  0  0  0  0  0  0  0  0  0
  -43.0250   -2.8157   17.5683 O   0  0  0  0  0  0  0  0  0  0  0  0
  -43.9360    1.1943   20.1983 O   0  0  0  0  0  0  0  0  0  0  0  0
  -46.5060    1.9813   20.1953 O   0  5  0  0  0  0  0  0  0  0  0  0
  -47.2350    1.7673   18.0433 O   0  0  0  0  0  0  0  0  0  0  0  0
  -49.9900   -4.0887   15.7173 O   0  0  0  0  0  0  0  0  0  0  0  0
  -45.9230   -0.5197   14.6703 O   0  0  0  0  0  0  0  0  0  0  0  0
  -48.3460   -0.1627   13.4813 O   0  0  0  0  0  0  0  0  0  0  0  0
  -50.7550   -1.0357   13.1713 O   0  0  0  0  0  0  0  0  0  0  0  0
  -43.3650   -0.7867   18.8813 C   0  0  0  0  0  0  0  0  0  0  0  0
  -43.7310   -1.5667   17.6033 C   0  0  0  0  0  0  0  0  0  0  0  0
  -44.2080    0.4993   18.9713 C   0  0  0  0  0  0  0  0  0  0  0  0
  -45.2520   -1.8317   17.5263 C   0  0  0  0  0  0  0  0  0  0  0  0
  -45.7070    0.1523   18.8863 C   0  0  0  0  0  0  0  0  0  0  0  0
  -46.5460    1.3963   19.0573 C   0  0  0  0  0  0  0  0  0  0  0  0
  -46.7390   -2.4797   15.7863 C   0  0  0  0  0  0  0  0  0  0  0  0
  -47.7740   -3.3627   16.0113 C   0  0  0  0  0  0  0  0  0  0  0  0
  -46.9380   -1.3987   14.9263 C   0  0  0  0  0  0  0  0  0  0  0  0
  -49.0130   -3.1897   15.4233 C   0  0  0  0  0  0  0  0  0  0  0  0
  -49.2070   -2.1067   14.5673 C   0  0  0  0  0  0  0  0  0  0  0  0
  -48.1570   -1.2147   14.3213 C   0  0  0  0  0  0  0  0  0  0  0  0
  -50.5130   -1.9477   13.9623 C   0  0  0  0  0  0  0  0  0  0  0  0
  -51.2370   -3.8927   15.1773 C   0  0  0  0  0  0  0  0  0  0  0  0
  -51.5270   -2.8747   14.3143 C   0  0  0  0  0  0  0  0  0  0  0  0
  -52.2810   -4.8647   15.5923 C   0  0  0  0  0  0  0  0  0  0  0  0
  -53.5460   -4.7467   15.0363 C   0  0  0  0  0  0  0  0  0  0  0  0
  -52.0550   -5.8877   16.5043 C   0  0  0  0  0  0  0  0  0  0  0  0
  -54.5520   -5.6177   15.3753 C   0  0  0  0  0  0  0  0  0  0  0  0
  -53.0630   -6.7577   16.8433 C   0  0  0  0  0  0  0  0  0  0  0  0
  -54.3120   -6.6267   16.2803 C   0  0  0  0  0  0  0  0  0  0  0  0
  -43.5630   -1.3557   19.6793 H   0  0  0  0  0  0  0  0  0  0  0  0
  -43.4660   -1.0097   16.8173 H   0  0  0  0  0  0  0  0  0  0  0  0
  -43.9640    1.0953   18.2063 H   0  0  0  0  0  0  0  0  0  0  0  0
  -45.5440   -2.3727   18.3143 H   0  0  0  0  0  0  0  0  0  0  0  0
  -45.9330   -0.4547   19.6493 H   0  0  0  0  0  0  0  0  0  0  0  0
  -41.4170   -1.2297   18.5143 H   0  0  0  0  0  0  0  0  0  0  0  0
  -43.2400   -3.3337   16.7323 H   0  0  0  0  0  0  0  0  0  0  0  0
  -43.8190    2.1813   20.0423 H   0  0  0  0  0  0  0  0  0  0  0  0
  -45.5780   -0.6207   13.7333 H   0  0  0  0  0  0  0  0  0  0  0  0
  -48.4520   -0.4677   12.5283 H   0  0  0  0  0  0  0  0  0  0  0  0
  -47.6240   -4.1467   16.6133 H   0  0  0  0  0  0  0  0  0  0  0  0
  -52.4470   -2.7847   13.9323 H   0  0  0  0  0  0  0  0  0  0  0  0
  -53.7290   -4.0167   14.3783 H   0  0  0  0  0  0  0  0  0  0  0  0
  -51.1510   -5.9907   16.9183 H   0  0  0  0  0  0  0  0  0  0  0  0
  -55.4590   -5.5197   14.9643 H   0  0  0  0  0  0  0  0  0  0  0  0
  -52.8870   -7.4907   17.5013 H   0  0  0  0  0  0  0  0  0  0  0  0
  -55.0430   -7.2627   16.5283 H   0  0  0  0  0  0  0  0  0  0  0  0
  1 15  1  0
  1 16  1  0
  2 18  1  0
  6 17  1  0
  7 17  2  0
  8 21  1  0
  8 25  1  0
  9 20  1  0
 10 23  1  0
 11 24  2  0
 12  3  1  0
 12 13  1  0
 12 14  1  0
 13  4  1  0
 13 15  1  0
 14  5  1  0
 14 16  1  0
 15  2  1  0
 16 17  1  0
 18 19  2  0
 18 20  1  0
 19 21  1  0
 20 23  2  0
 21 22  2  0
 22 23  1  0
 22 24  1  0
 24 26  1  0
 25 26  2  0
 25 27  1  0
 27 28  2  0
 27 29  1  0
 28 30  1  0
 29 31  2  0
 30 32  2  0
 31 32  1  0
  3 38  1  0
  4 39  1  0
  5 40  1  0
  9 41  1  0
 10 42  1  0
 12 33  1  0
 13 34  1  0
 14 35  1  0
 15 36  1  0
 16 37  1  0
 19 43  1  0
 26 44  1  0
 28 45  1  0
 29 46  1  0
 30 47  1  0
 31 48  1  0
 32 49  1  0
M  CHG  1   6  -1
M  END
>  <LF dG>
-7.346

>  <LF VSscore>
-11.461

>  <LF Rank Score>
-11.931

>  <LF LE>
-0.23

>  <LF Structure Name>
C:\Users\Odara\AppData\Local\Temp\LeadFinder_1384_1\Ligand_1.sdf

>  <LF SDF id>
0

>  <LF Pose rank>
0

>  <LF version>
2001 1, 19 January 2019

>  <PUBCHEM_COMPOUND_CID>
64982

>  <PUBCHEM_COMPOUND_CANONICALIZED>
1

>  <PUBCHEM_CACTVS_COMPLEXITY>
748

>  <PUBCHEM_CACTVS_HBOND_ACCEPTOR>
11

>  <PUBCHEM_CACTVS_HBOND_DONOR>
6

>  <PUBCHEM_CACTVS_ROTATABLE_BOND>
4

>  <PUBCHEM_CACTVS_SUBSKEYS>
AAADceB4PAAAAAAAAAAAAAAAAAAAAAAAAAA0YIEAAAAAAACBQAAAGgAACAAADBSwmAMwDoAABgCIAqDSCAICCAAkIAAIiAFGiMgdNzaGNR6ieWOl4BUPuQfK7LzOIQABCAAIQABCAAIQABCAAAAAAAAAAA==

>  <PUBCHEM_IUPAC_OPENEYE_NAME>
(2S,3S,4S,5R,6S)-6-(5,6-dihydroxy-4-oxo-2-phenyl-chromen-7-yl)oxy-3,4,5-trihydroxy-tetrahydropyran-2-carboxylic acid

>  <PUBCHEM_IUPAC_CAS_NAME>
(2S,3S,4S,5R,6S)-6-[(5,6-dihydroxy-4-oxo-2-phenyl-1-benzopyran-7-yl)oxy]-3,4,5-trihydroxy-2-oxanecarboxylic acid

>  <PUBCHEM_IUPAC_NAME_MARKUP>
(2<I>S</I>,3<I>S</I>,4<I>S</I>,5<I>R</I>,6<I>S</I>)-6-(5,6-dihydroxy-4-oxo-2-phenylchromen-7-yl)oxy-3,4,5-trihydroxyoxane-2-carboxylic acid

>  <PUBCHEM_IUPAC_NAME>
(2S,3S,4S,5R,6S)-6-(5,6-dihydroxy-4-oxo-2-phenylchromen-7-yl)oxy-3,4,5-trihydroxyoxane-2-carboxylic acid

>  <PUBCHEM_IUPAC_SYSTEMATIC_NAME>
(2S,3S,4S,5R,6S)-6-[5,6-bis(oxidanyl)-4-oxidanylidene-2-phenyl-chromen-7-yl]oxy-3,4,5-tris(oxidanyl)oxane-2-carboxylic acid

>  <PUBCHEM_IUPAC_TRADITIONAL_NAME>
(2S,3S,4S,5R,6S)-6-(5,6-dihydroxy-4-keto-2-phenyl-chromen-7-yl)oxy-3,4,5-trihydroxy-tetrahydropyran-2-carboxylic acid

>  <PUBCHEM_IUPAC_INCHI>
InChI=1S/C21H18O11/c22-9-6-10(8-4-2-1-3-5-8)30-11-7-12(14(23)15(24)13(9)11)31-21-18(27)16(25)17(26)19(32-21)20(28)29/h1-7,16-19,21,23-27H,(H,28,29)/t16-,17-,18+,19-,21+/m0/s1

>  <PUBCHEM_IUPAC_INCHIKEY>
IKIIZLYTISPENI-ZFORQUDYSA-N

>  <PUBCHEM_XLOGP3_AA>
1.1

>  <PUBCHEM_EXACT_MASS>
446.084911

>  <PUBCHEM_MOLECULAR_FORMULA>
C21H18O11

>  <PUBCHEM_MOLECULAR_WEIGHT>
446.4

>  <PUBCHEM_OPENEYE_CAN_SMILES>
C1=CC=C(C=C1)C2=CC(=O)C3=C(C(=C(C=C3O2)OC4C(C(C(C(O4)C(=O)O)O)O)O)O)O

>  <PUBCHEM_OPENEYE_ISO_SMILES>
C1=CC=C(C=C1)C2=CC(=O)C3=C(C(=C(C=C3O2)O[C@H]4[C@@H]([C@H]([C@@H]([C@H](O4)C(=O)O)O)O)O)O)O

>  <PUBCHEM_CACTVS_TPSA>
183

>  <PUBCHEM_MONOISOTOPIC_WEIGHT>
446.084911

>  <PUBCHEM_TOTAL_CHARGE>
0

>  <PUBCHEM_HEAVY_ATOM_COUNT>
32

>  <PUBCHEM_ATOM_DEF_STEREO_COUNT>
5

>  <PUBCHEM_ATOM_UDEF_STEREO_COUNT>
0

>  <PUBCHEM_BOND_DEF_STEREO_COUNT>
0

>  <PUBCHEM_BOND_UDEF_STEREO_COUNT>
0

>  <PUBCHEM_ISOTOPIC_ATOM_COUNT>
0

>  <PUBCHEM_COMPONENT_COUNT>
1

>  <PUBCHEM_CACTVS_TAUTO_COUNT>
-1

>  <PUBCHEM_COORDINATE_TYPE>
1
5
255

>  <PUBCHEM_BONDANNOTATIONS>
16  17  5
18  19  8
18  20  8
19  21  8
15  2  5
20  23  8
21  22  8
22  23  8
22  24  8
24  26  8
25  26  8
27  28  8
27  29  8
28  30  8
29  31  8
12  3  5
30  32  8
31  32  8
13  4  6
14  5  6
8  21  8
8  25  8

>  <Preferred Pose_cresset>
true

>  <Favorite_cresset>
false

>  <MW_cresset>
445.4

>  <#Atoms_cresset>
32

>  <SlogP_cresset>
1.1

>  <TPSA_cresset>
186

>  <Flexibility_cresset>
7.6

>  <#RB_cresset>
9

>  <Rof5_cresset>
1

>  <Filename_cresset>
bicalin 3 dimer with water.sdf

>  <Confs_cresset>
0

>  <Poses_cresset>
10

>  <_cresset_fieldpoints>
    -5     -48.168648       3.269364      18.556690    -11.9521
    -5     -46.840340       0.697472      16.505186    -19.6057
    -5     -42.047287       0.633505      20.444462    -17.2845
    -5     -42.511292      -3.862027      19.086834     -8.6114
    -5     -45.327747       1.244102      21.511654    -16.1610
    -5     -47.751717       3.396976      19.864830    -11.3707
    -5     -50.052914       0.698943      13.573988    -19.6059
    -5     -52.175385      -0.022581      12.414163    -15.2092
    -5     -49.477234      -6.122434      14.508793     -1.2011
    -5     -52.572159      -7.634879      13.820229     -2.5000
    -5     -54.132401      -4.048044      18.179426     -2.6789
    -6     -45.725395      -2.532474      20.436520      4.2998
    -6     -43.026993      -3.159104      14.838326      8.1375
    -6     -46.361923      -0.860337      12.003279      9.9417
    -6     -39.924713      -1.947709      17.553791      5.5239
    -6     -46.834724      -4.238402      18.751736      3.8469
    -6     -43.729591       3.498531      18.704908      7.3516
    -6     -49.746250      -4.922218      12.885406      1.8344
    -6     -57.252625      -6.975763      15.466479      2.7437
    -6     -54.536118      -2.885765      12.984811      3.7774
    -6     -46.511280      -4.983982      18.148581      3.4726
    -6     -54.604805      -9.050153      18.114727      2.7301
    -6     -48.958797      -5.881832      17.579315      3.5605
    -7     -48.636162      -0.439801      17.729698     -3.2222
    -7     -43.696495      -1.991332      14.358076     -2.3494
    -7     -41.493958       0.887610      16.864683     -1.6767
    -7     -41.453369       1.540686      20.258923     -1.5085
    -7     -41.578236      -3.440281      19.374586     -1.4842
    -7     -45.381157       0.866118      22.066994     -1.8265
    -7     -40.845566      -2.371040      16.582993     -1.3948
    -7     -44.768955      -0.174410      22.065731     -1.7115
    -7     -44.804634       3.731273      18.660204     -1.4946
    -7     -49.981182      -5.133223      12.859824     -2.3800
    -7     -46.506798       1.385453      13.002245     -1.5324
    -7     -47.194374      -4.115527      12.621281     -1.8451
    -7     -49.338715      -2.221725      11.220375     -1.7761
    -7     -46.377106      -0.973860      11.561481     -1.4164
    -7     -50.348984       1.229627      14.221763     -1.6834
    -7     -45.454010       1.339820      15.996843     -3.0939
    -7     -45.438217      -2.705376      20.859283     -1.8454
    -7     -44.707603      -4.982174      17.561184     -2.0769
    -7     -49.608757      -5.999953      13.864992     -2.3264
    -7     -51.472061      -1.853049      17.261993     -2.4487
    -7     -52.253181      -7.549329      13.446301     -1.7839
    -7     -50.296249      -7.737163      18.674988     -1.0124
    -7     -54.002151      -3.609612      18.283333     -1.7880
    -7     -57.583908      -7.146114      15.530891     -0.9670
    -7     -54.751831      -9.310179      18.314295     -0.9676
    -8     -44.376694      -0.729011      18.487652      5.1106
    -8     -53.300591      -5.745292      15.937681      7.1514
    -8     -48.001297      -2.316817      15.174238      6.5973
    -8     -52.403564      -3.996337      14.870169      5.5746
    -8     -50.298912      -2.745744      14.661316      5.0283

$$$$
Site3d_Wogonin_D
  xed2sdf_05210316543D
 
 33 35  0  0  0  0  0  0  0  0999 V2000
  -50.2559   -4.1749   16.2435 O   0  0  0  0  0  0  0  0  0  0  0  0
  -48.1482   -4.5495   17.8834 O   0  0  0  0  0  0  0  0  0  0  0  0
  -47.7863   -0.6155   14.0840 O   0  0  0  0  0  0  0  0  0  0  0  0
  -45.8956   -3.0163   17.6696 O   0  0  0  0  0  0  0  0  0  0  0  0
  -50.2962   -1.3521   13.3561 O   0  0  0  0  0  0  0  0  0  0  0  0
  -49.0795   -2.3791   15.1062 C   0  0  0  0  0  0  0  0  0  0  0  0
  -49.1590   -3.3831   16.0777 C   0  0  0  0  0  0  0  0  0  0  0  0
  -51.3199   -4.0113   15.3937 C   0  0  0  0  0  0  0  0  0  0  0  0
  -48.0846   -3.5972   16.9318 C   0  0  0  0  0  0  0  0  0  0  0  0
  -50.2329   -2.2049   14.2405 C   0  0  0  0  0  0  0  0  0  0  0  0
  -47.9132   -1.6011   15.0117 C   0  0  0  0  0  0  0  0  0  0  0  0
  -51.3476   -3.0632   14.4142 C   0  0  0  0  0  0  0  0  0  0  0  0
  -52.4668   -4.9350   15.5931 C   0  0  0  0  0  0  0  0  0  0  0  0
  -46.9478   -2.8184   16.8309 C   0  0  0  0  0  0  0  0  0  0  0  0
  -46.8687   -1.8265   15.8681 C   0  0  0  0  0  0  0  0  0  0  0  0
  -52.3647   -5.9142   16.5700 C   0  0  0  0  0  0  0  0  0  0  0  0
  -53.6363   -4.8675   14.8478 C   0  0  0  0  0  0  0  0  0  0  0  0
  -53.3922   -6.7969   16.7959 C   0  0  0  0  0  0  0  0  0  0  0  0
  -54.6639   -5.7505   15.0744 C   0  0  0  0  0  0  0  0  0  0  0  0
  -54.5448   -6.7165   16.0478 C   0  0  0  0  0  0  0  0  0  0  0  0
  -48.0418   -5.9228   17.4565 C   0  0  0  0  0  0  0  0  0  0  0  0
  -47.1388   -0.8580   13.3583 H   0  0  0  0  0  0  0  0  0  0  0  0
  -45.3012   -2.2074   17.7232 H   0  0  0  0  0  0  0  0  0  0  0  0
  -52.1489   -2.9739   13.8225 H   0  0  0  0  0  0  0  0  0  0  0  0
  -46.0412   -1.2693   15.7976 H   0  0  0  0  0  0  0  0  0  0  0  0
  -51.5307   -5.9786   17.1179 H   0  0  0  0  0  0  0  0  0  0  0  0
  -53.7314   -4.1687   14.1388 H   0  0  0  0  0  0  0  0  0  0  0  0
  -53.3032   -7.4978   17.5037 H   0  0  0  0  0  0  0  0  0  0  0  0
  -55.5010   -5.6914   14.5307 H   0  0  0  0  0  0  0  0  0  0  0  0
  -55.2937   -7.3586   16.2108 H   0  0  0  0  0  0  0  0  0  0  0  0
  -47.9312   -5.9473   16.4632 H   0  0  0  0  0  0  0  0  0  0  0  0
  -47.2518   -6.3523   17.8940 H   0  0  0  0  0  0  0  0  0  0  0  0
  -48.8689   -6.4212   17.7167 H   0  0  0  0  0  0  0  0  0  0  0  0
  1  7  1  0
  1  8  1  0
  2  9  1  0
  2 21  1  0
  3 11  1  0
  4 14  1  0
  5 10  2  0
  6  7  2  0
  6 10  1  0
  6 11  1  0
  7  9  1  0
  8 12  2  0
  8 13  1  0
  9 14  2  0
 10 12  1  0
 11 15  2  0
 13 16  2  0
 13 17  1  0
 14 15  1  0
 16 18  1  0
 17 19  2  0
 18 20  2  0
 19 20  1  0
  3 22  1  0
  4 23  1  0
 12 24  1  0
 15 25  1  0
 16 26  1  0
 17 27  1  0
 18 28  1  0
 19 29  1  0
 20 30  1  0
 21 31  1  0
 21 32  1  0
 21 33  1  0
M  END
>  <LF dG>
-7.243

>  <LF VSscore>
-7.844

>  <LF Rank Score>
-9.976

>  <LF LE>
-0.345

>  <LF Structure Name>
C:\Users\Odara\AppData\Local\Temp\LeadFinder_14836_1\Ligand_1.sdf

>  <LF SDF id>
0

>  <LF Pose rank>
0

>  <LF version>
2001 1, 19 January 2019

>  <PUBCHEM_COMPOUND_CID>
5281703

>  <PUBCHEM_COMPOUND_CANONICALIZED>
1

>  <PUBCHEM_CACTVS_COMPLEXITY>
426

>  <PUBCHEM_CACTVS_HBOND_ACCEPTOR>
5

>  <PUBCHEM_CACTVS_HBOND_DONOR>
2

>  <PUBCHEM_CACTVS_ROTATABLE_BOND>
2

>  <PUBCHEM_CACTVS_SUBSKEYS>
AAADccB4OAAAAAAAAAAAAAAAAAAAAAAAAAAwYIAAAAAAAACBQAAAGgAACAAADASAmAIyBoAABgCIAqBSAAACCAAkIAAIiAEGiMgNJzaGNRqCeWOl4BULuQfK7LzOIQABCAAIQABCAAIQABCAAAAAAAAAAA==

>  <PUBCHEM_IUPAC_OPENEYE_NAME>
5,7-dihydroxy-8-methoxy-2-phenyl-chromen-4-one

>  <PUBCHEM_IUPAC_CAS_NAME>
5,7-dihydroxy-8-methoxy-2-phenyl-1-benzopyran-4-one

>  <PUBCHEM_IUPAC_NAME_MARKUP>
5,7-dihydroxy-8-methoxy-2-phenylchromen-4-one

>  <PUBCHEM_IUPAC_NAME>
5,7-dihydroxy-8-methoxy-2-phenylchromen-4-one

>  <PUBCHEM_IUPAC_SYSTEMATIC_NAME>
8-methoxy-5,7-bis(oxidanyl)-2-phenyl-chromen-4-one

>  <PUBCHEM_IUPAC_TRADITIONAL_NAME>
5,7-dihydroxy-8-methoxy-2-phenyl-chromone

>  <PUBCHEM_IUPAC_INCHI>
InChI=1S/C16H12O5/c1-20-15-12(19)7-10(17)14-11(18)8-13(21-16(14)15)9-5-3-2-4-6-9/h2-8,17,19H,1H3

>  <PUBCHEM_IUPAC_INCHIKEY>
XLTFNNCXVBYBSX-UHFFFAOYSA-N

>  <PUBCHEM_XLOGP3_AA>
3

>  <PUBCHEM_EXACT_MASS>
284.068473

>  <PUBCHEM_MOLECULAR_FORMULA>
C16H12O5

>  <PUBCHEM_MOLECULAR_WEIGHT>
284.26

>  <PUBCHEM_OPENEYE_CAN_SMILES>
COC1=C(C=C(C2=C1OC(=CC2=O)C3=CC=CC=C3)O)O

>  <PUBCHEM_OPENEYE_ISO_SMILES>
COC1=C(C=C(C2=C1OC(=CC2=O)C3=CC=CC=C3)O)O

>  <PUBCHEM_CACTVS_TPSA>
76

>  <PUBCHEM_MONOISOTOPIC_WEIGHT>
284.068473

>  <PUBCHEM_TOTAL_CHARGE>
0

>  <PUBCHEM_HEAVY_ATOM_COUNT>
21

>  <PUBCHEM_ATOM_DEF_STEREO_COUNT>
0

>  <PUBCHEM_ATOM_UDEF_STEREO_COUNT>
0

>  <PUBCHEM_BOND_DEF_STEREO_COUNT>
0

>  <PUBCHEM_BOND_UDEF_STEREO_COUNT>
0

>  <PUBCHEM_ISOTOPIC_ATOM_COUNT>
0

>  <PUBCHEM_COMPONENT_COUNT>
1

>  <PUBCHEM_CACTVS_TAUTO_COUNT>
-1

>  <PUBCHEM_COORDINATE_TYPE>
1
5
255

>  <PUBCHEM_BONDANNOTATIONS>
1  7  8
1  8  8
10  12  8
11  15  8
13  16  8
13  17  8
14  15  8
16  18  8
17  19  8
18  20  8
19  20  8
6  10  8
6  11  8
6  7  8
7  9  8
8  12  8
9  14  8

>  <Favorite_cresset>
false

>  <MW_cresset>
284.3

>  <#Atoms_cresset>
21

>  <SlogP_cresset>
2.6

>  <TPSA_cresset>
76

>  <Flexibility_cresset>
1.7

>  <#RB_cresset>
4

>  <Rof5_cresset>
0

>  <Filename_cresset>
drag.59_626.sdf

>  <Confs_cresset>
0

>  <Poses_cresset>
0

$$$$
W_Site3d_Wogonin_D
  xed2sdf_05210316543D
 
 33 35  0  0  0  0  0  0  0  0999 V2000
  -49.1962   -3.7100   15.9001 O   0  0  0  0  0  0  0  0  0  0  0  0
  -46.6988   -2.8363   16.0709 O   0  0  0  0  0  0  0  0  0  0  0  0
  -50.2177    0.0307   13.0023 O   0  0  0  0  0  0  0  0  0  0  0  0
  -45.8611   -0.5851   14.6929 O   0  0  0  0  0  0  0  0  0  0  0  0
  -52.0399   -1.8565   13.7104 O   0  0  0  0  0  0  0  0  0  0  0  0
  -49.7885   -1.8632   14.4346 C   0  0  0  0  0  0  0  0  0  0  0  0
  -48.8729   -2.5778   15.2138 C   0  0  0  0  0  0  0  0  0  0  0  0
  -50.4827   -4.1797   15.8217 C   0  0  0  0  0  0  0  0  0  0  0  0
  -47.5631   -2.1346   15.3125 C   0  0  0  0  0  0  0  0  0  0  0  0
  -51.1426   -2.3832   14.3666 C   0  0  0  0  0  0  0  0  0  0  0  0
  -49.3645   -0.7032   13.7646 C   0  0  0  0  0  0  0  0  0  0  0  0
  -51.4532   -3.5630   15.0887 C   0  0  0  0  0  0  0  0  0  0  0  0
  -50.7798   -5.4175   16.5889 C   0  0  0  0  0  0  0  0  0  0  0  0
  -47.1538   -1.0030   14.6308 C   0  0  0  0  0  0  0  0  0  0  0  0
  -48.0629   -0.2900   13.8672 C   0  0  0  0  0  0  0  0  0  0  0  0
  -49.7611   -6.0039   17.3251 C   0  0  0  0  0  0  0  0  0  0  0  0
  -52.0312   -6.0183   16.6046 C   0  0  0  0  0  0  0  0  0  0  0  0
  -49.9825   -7.1480   18.0525 C   0  0  0  0  0  0  0  0  0  0  0  0
  -52.2522   -7.1625   17.3322 C   0  0  0  0  0  0  0  0  0  0  0  0
  -51.2296   -7.7302   18.0579 C   0  0  0  0  0  0  0  0  0  0  0  0
  -46.2848   -2.2428   17.3189 C   0  0  0  0  0  0  0  0  0  0  0  0
  -50.3048   -0.3343   12.0727 H   0  0  0  0  0  0  0  0  0  0  0  0
  -45.3733   -0.7588   13.8307 H   0  0  0  0  0  0  0  0  0  0  0  0
  -52.3788   -3.9408   15.0608 H   0  0  0  0  0  0  0  0  0  0  0  0
  -47.7658    0.5348   13.3860 H   0  0  0  0  0  0  0  0  0  0  0  0
  -48.8519   -5.5877   17.3265 H   0  0  0  0  0  0  0  0  0  0  0  0
  -52.7802   -5.6134   16.0803 H   0  0  0  0  0  0  0  0  0  0  0  0
  -49.2372   -7.5580   18.5782 H   0  0  0  0  0  0  0  0  0  0  0  0
  -53.1588   -7.5843   17.3346 H   0  0  0  0  0  0  0  0  0  0  0  0
  -51.3920   -8.5628   18.5871 H   0  0  0  0  0  0  0  0  0  0  0  0
  -46.7340   -1.3554   17.4223 H   0  0  0  0  0  0  0  0  0  0  0  0
  -46.5412   -2.8403   18.0786 H   0  0  0  0  0  0  0  0  0  0  0  0
  -45.2924   -2.1211   17.3210 H   0  0  0  0  0  0  0  0  0  0  0  0
  1  7  1  0
  1  8  1  0
  2  9  1  0
  2 21  1  0
  3 11  1  0
  4 14  1  0
  5 10  2  0
  6  7  2  0
  6 10  1  0
  6 11  1  0
  7  9  1  0
  8 12  2  0
  8 13  1  0
  9 14  2  0
 10 12  1  0
 11 15  2  0
 13 16  2  0
 13 17  1  0
 14 15  1  0
 16 18  1  0
 17 19  2  0
 18 20  2  0
 19 20  1  0
  3 22  1  0
  4 23  1  0
 12 24  1  0
 15 25  1  0
 16 26  1  0
 17 27  1  0
 18 28  1  0
 19 29  1  0
 20 30  1  0
 21 31  1  0
 21 32  1  0
 21 33  1  0
M  END
>  <LF dG>
-6.923

>  <LF VSscore>
-8.517

>  <LF Rank Score>
-10.79

>  <LF LE>
-0.33

>  <LF Structure Name>
C:\Users\Odara\AppData\Local\Temp\LeadFinder_10156_1\Ligand_1.sdf

>  <LF SDF id>
0

>  <LF Pose rank>
0

>  <LF version>
2001 1, 19 January 2019

>  <PUBCHEM_COMPOUND_CID>
5281703

>  <PUBCHEM_COMPOUND_CANONICALIZED>
1

>  <PUBCHEM_CACTVS_COMPLEXITY>
426

>  <PUBCHEM_CACTVS_HBOND_ACCEPTOR>
5

>  <PUBCHEM_CACTVS_HBOND_DONOR>
2

>  <PUBCHEM_CACTVS_ROTATABLE_BOND>
2

>  <PUBCHEM_CACTVS_SUBSKEYS>
AAADccB4OAAAAAAAAAAAAAAAAAAAAAAAAAAwYIAAAAAAAACBQAAAGgAACAAADASAmAIyBoAABgCIAqBSAAACCAAkIAAIiAEGiMgNJzaGNRqCeWOl4BULuQfK7LzOIQABCAAIQABCAAIQABCAAAAAAAAAAA==

>  <PUBCHEM_IUPAC_OPENEYE_NAME>
5,7-dihydroxy-8-methoxy-2-phenyl-chromen-4-one

>  <PUBCHEM_IUPAC_CAS_NAME>
5,7-dihydroxy-8-methoxy-2-phenyl-1-benzopyran-4-one

>  <PUBCHEM_IUPAC_NAME_MARKUP>
5,7-dihydroxy-8-methoxy-2-phenylchromen-4-one

>  <PUBCHEM_IUPAC_NAME>
5,7-dihydroxy-8-methoxy-2-phenylchromen-4-one

>  <PUBCHEM_IUPAC_SYSTEMATIC_NAME>
8-methoxy-5,7-bis(oxidanyl)-2-phenyl-chromen-4-one

>  <PUBCHEM_IUPAC_TRADITIONAL_NAME>
5,7-dihydroxy-8-methoxy-2-phenyl-chromone

>  <PUBCHEM_IUPAC_INCHI>
InChI=1S/C16H12O5/c1-20-15-12(19)7-10(17)14-11(18)8-13(21-16(14)15)9-5-3-2-4-6-9/h2-8,17,19H,1H3

>  <PUBCHEM_IUPAC_INCHIKEY>
XLTFNNCXVBYBSX-UHFFFAOYSA-N

>  <PUBCHEM_XLOGP3_AA>
3

>  <PUBCHEM_EXACT_MASS>
284.068473

>  <PUBCHEM_MOLECULAR_FORMULA>
C16H12O5

>  <PUBCHEM_MOLECULAR_WEIGHT>
284.26

>  <PUBCHEM_OPENEYE_CAN_SMILES>
COC1=C(C=C(C2=C1OC(=CC2=O)C3=CC=CC=C3)O)O

>  <PUBCHEM_OPENEYE_ISO_SMILES>
COC1=C(C=C(C2=C1OC(=CC2=O)C3=CC=CC=C3)O)O

>  <PUBCHEM_CACTVS_TPSA>
76

>  <PUBCHEM_MONOISOTOPIC_WEIGHT>
284.068473

>  <PUBCHEM_TOTAL_CHARGE>
0

>  <PUBCHEM_HEAVY_ATOM_COUNT>
21

>  <PUBCHEM_ATOM_DEF_STEREO_COUNT>
0

>  <PUBCHEM_ATOM_UDEF_STEREO_COUNT>
0

>  <PUBCHEM_BOND_DEF_STEREO_COUNT>
0

>  <PUBCHEM_BOND_UDEF_STEREO_COUNT>
0

>  <PUBCHEM_ISOTOPIC_ATOM_COUNT>
0

>  <PUBCHEM_COMPONENT_COUNT>
1

>  <PUBCHEM_CACTVS_TAUTO_COUNT>
-1

>  <PUBCHEM_COORDINATE_TYPE>
1
5
255

>  <PUBCHEM_BONDANNOTATIONS>
1  7  8
1  8  8
10  12  8
11  15  8
13  16  8
13  17  8
14  15  8
16  18  8
17  19  8
18  20  8
19  20  8
6  10  8
6  11  8
6  7  8
7  9  8
8  12  8
9  14  8

>  <Favorite_cresset>
false

>  <MW_cresset>
284.3

>  <#Atoms_cresset>
21

>  <SlogP_cresset>
2.6

>  <TPSA_cresset>
76

>  <Flexibility_cresset>
1.7

>  <#RB_cresset>
4

>  <Rof5_cresset>
0

>  <Filename_cresset>
drag.57_598.sdf

>  <Confs_cresset>
0

>  <Poses_cresset>
0

$$$$
Site3d_Wogonoside_D
  xed2sdf_05210316543D
 
 52 55  0  0  1  0  0  0  0  0999 V2000
  -44.3365  -13.0230   19.7277 O   0  0  0  0  0  0  0  0  0  0  0  0
  -46.7465  -12.6398   19.5770 O   0  0  0  0  0  0  0  0  0  0  0  0
  -43.6323   -8.9603   18.9686 O   0  0  0  0  0  0  0  0  0  0  0  0
  -46.2780  -10.0420   18.6918 O   0  0  0  0  0  0  0  0  0  0  0  0
  -41.4747  -10.8441   18.7763 O   0  0  0  0  0  0  0  0  0  0  0  0
  -42.4812  -14.5979   20.4727 O   0  5  0  0  0  0  0  0  0  0  0  0
  -40.7859  -13.3289   19.6241 O   0  0  0  0  0  0  0  0  0  0  0  0
  -47.8867  -14.8886   23.5453 O   0  0  0  0  0  0  0  0  0  0  0  0
  -47.3986  -12.6027   22.1663 O   0  0  0  0  0  0  0  0  0  0  0  0
  -46.9204  -17.3950   19.5622 O   0  0  0  0  0  0  0  0  0  0  0  0
  -47.5091  -18.5181   21.7954 O   0  0  0  0  0  0  0  0  0  0  0  0
  -43.8583  -10.3590   18.7408 C   0  0  0  0  0  0  0  0  0  0  0  0
  -45.2203  -10.7794   19.3220 C   0  0  0  0  0  0  0  0  0  0  0  0
  -42.7312  -11.1936   19.3766 C   0  0  0  0  0  0  0  0  0  0  0  0
  -45.4216  -12.2935   19.1105 C   0  0  0  0  0  0  0  0  0  0  0  0
  -43.0463  -12.6916   19.1698 C   0  0  0  0  0  0  0  0  0  0  0  0
  -42.0237  -13.6081   19.8018 C   0  0  0  0  0  0  0  0  0  0  0  0
  -46.9520  -13.8103   20.1969 C   0  0  0  0  0  0  0  0  0  0  0  0
  -47.2829  -13.7922   21.5412 C   0  0  0  0  0  0  0  0  0  0  0  0
  -46.8363  -15.0326   19.5421 C   0  0  0  0  0  0  0  0  0  0  0  0
  -47.5228  -14.9725   22.2346 C   0  0  0  0  0  0  0  0  0  0  0  0
  -47.3929  -16.1891   21.5655 C   0  0  0  0  0  0  0  0  0  0  0  0
  -47.0452  -16.2088   20.2115 C   0  0  0  0  0  0  0  0  0  0  0  0
  -47.6343  -17.4069   22.3102 C   0  0  0  0  0  0  0  0  0  0  0  0
  -48.1531  -16.0512   24.2265 C   0  0  0  0  0  0  0  0  0  0  0  0
  -48.0314  -17.2898   23.6660 C   0  0  0  0  0  0  0  0  0  0  0  0
  -48.5957  -15.8949   25.6367 C   0  0  0  0  0  0  0  0  0  0  0  0
  -48.6199  -11.8621   21.9666 C   0  0  0  0  0  0  0  0  0  0  0  0
  -48.6374  -14.6197   26.1799 C   0  0  0  0  0  0  0  0  0  0  0  0
  -48.9756  -16.9634   26.4376 C   0  0  0  0  0  0  0  0  0  0  0  0
  -49.0456  -14.4155   27.4755 C   0  0  0  0  0  0  0  0  0  0  0  0
  -49.3838  -16.7585   27.7337 C   0  0  0  0  0  0  0  0  0  0  0  0
  -49.4206  -15.4854   28.2556 C   0  0  0  0  0  0  0  0  0  0  0  0
  -43.8630  -10.5247   17.7546 H   0  0  0  0  0  0  0  0  0  0  0  0
  -45.2378  -10.5793   20.3015 H   0  0  0  0  0  0  0  0  0  0  0  0
  -42.6696  -11.0065   20.3569 H   0  0  0  0  0  0  0  0  0  0  0  0
  -45.3837  -12.5523   18.1453 H   0  0  0  0  0  0  0  0  0  0  0  0
  -43.0328  -12.8331   18.1801 H   0  0  0  0  0  0  0  0  0  0  0  0
  -42.7416   -8.6696   18.6029 H   0  0  0  0  0  0  0  0  0  0  0  0
  -46.2079  -10.0839   17.6890 H   0  0  0  0  0  0  0  0  0  0  0  0
  -41.5087   -9.9337   18.3509 H   0  0  0  0  0  0  0  0  0  0  0  0
  -47.4300  -17.3953   18.6946 H   0  0  0  0  0  0  0  0  0  0  0  0
  -46.5974  -15.0525   18.5713 H   0  0  0  0  0  0  0  0  0  0  0  0
  -48.2209  -18.1087   24.2078 H   0  0  0  0  0  0  0  0  0  0  0  0
  -49.2205  -12.3822   21.3594 H   0  0  0  0  0  0  0  0  0  0  0  0
  -49.0740  -11.7160   22.8453 H   0  0  0  0  0  0  0  0  0  0  0  0
  -48.4119  -10.9742   21.5560 H   0  0  0  0  0  0  0  0  0  0  0  0
  -48.3664  -13.8368   25.6199 H   0  0  0  0  0  0  0  0  0  0  0  0
  -48.9520  -17.8921   26.0674 H   0  0  0  0  0  0  0  0  0  0  0  0
  -49.0703  -13.4893   27.8517 H   0  0  0  0  0  0  0  0  0  0  0  0
  -49.6549  -17.5373   28.2995 H   0  0  0  0  0  0  0  0  0  0  0  0
  -49.7184  -15.3385   29.1987 H   0  0  0  0  0  0  0  0  0  0  0  0
  1 15  1  0
  1 16  1  0
  2 18  1  0
  6 17  1  0
  7 17  2  0
  8 21  1  0
  8 25  1  0
  9 19  1  0
  9 28  1  0
 10 23  1  0
 11 24  2  0
 12  3  1  0
 12 13  1  0
 12 14  1  0
 13  4  1  0
 13 15  1  0
 14  5  1  0
 14 16  1  0
 15  2  1  0
 16 17  1  0
 18 19  2  0
 18 20  1  0
 19 21  1  0
 20 23  2  0
 21 22  2  0
 22 23  1  0
 22 24  1  0
 24 26  1  0
 25 26  2  0
 25 27  1  0
 27 29  2  0
 27 30  1  0
 29 31  1  0
 30 32  2  0
 31 33  2  0
 32 33  1  0
  3 39  1  0
  4 40  1  0
  5 41  1  0
 10 42  1  0
 12 34  1  0
 13 35  1  0
 14 36  1  0
 15 37  1  0
 16 38  1  0
 20 43  1  0
 26 44  1  0
 28 45  1  0
 28 46  1  0
 28 47  1  0
 29 48  1  0
 30 49  1  0
 31 50  1  0
 32 51  1  0
 33 52  1  0
M  CHG  1   6  -1
M  END
>  <LF dG>
-5.547

>  <LF VSscore>
-10.164

>  <LF Rank Score>
-11.683

>  <LF LE>
-0.168

>  <LF Structure Name>
C:\Users\Odara\AppData\Local\Temp\LeadFinder_4656_1\Ligand_1.sdf

>  <LF SDF id>
0

>  <LF Pose rank>
0

>  <LF version>
2001 1, 19 January 2019

>  <PUBCHEM_COMPOUND_CID>
3084961

>  <PUBCHEM_COMPOUND_CANONICALIZED>
1

>  <PUBCHEM_CACTVS_COMPLEXITY>
763

>  <PUBCHEM_CACTVS_HBOND_ACCEPTOR>
11

>  <PUBCHEM_CACTVS_HBOND_DONOR>
5

>  <PUBCHEM_CACTVS_ROTATABLE_BOND>
5

>  <PUBCHEM_CACTVS_SUBSKEYS>
AAADceB4PAAAAAAAAAAAAAAAAAAAAAAAAAA0YIEAAAAAAACBQAAAGgAACAAADBSwmAMyDoAABgCIAqDSCAICCAAkIAAIiAFGiMgdNzaGNR6ieWKl4BUPuQfK7LzOIQABCAAIQABCAAIQABCAAAAAAAAAAA==

>  <PUBCHEM_IUPAC_OPENEYE_NAME>
(2S,3S,4S,5R,6S)-3,4,5-trihydroxy-6-(5-hydroxy-8-methoxy-4-oxo-2-phenyl-chromen-7-yl)oxy-tetrahydropyran-2-carboxylic acid

>  <PUBCHEM_IUPAC_CAS_NAME>
(2S,3S,4S,5R,6S)-3,4,5-trihydroxy-6-[(5-hydroxy-8-methoxy-4-oxo-2-phenyl-1-benzopyran-7-yl)oxy]-2-oxanecarboxylic acid

>  <PUBCHEM_IUPAC_NAME_MARKUP>
(2<I>S</I>,3<I>S</I>,4<I>S</I>,5<I>R</I>,6<I>S</I>)-3,4,5-trihydroxy-6-(5-hydroxy-8-methoxy-4-oxo-2-phenylchromen-7-yl)oxyoxane-2-carboxylic acid

>  <PUBCHEM_IUPAC_NAME>
(2S,3S,4S,5R,6S)-3,4,5-trihydroxy-6-(5-hydroxy-8-methoxy-4-oxo-2-phenylchromen-7-yl)oxyoxane-2-carboxylic acid

>  <PUBCHEM_IUPAC_SYSTEMATIC_NAME>
(2S,3S,4S,5R,6S)-6-(8-methoxy-5-oxidanyl-4-oxidanylidene-2-phenyl-chromen-7-yl)oxy-3,4,5-tris(oxidanyl)oxane-2-carboxylic acid

>  <PUBCHEM_IUPAC_TRADITIONAL_NAME>
(2S,3S,4S,5R,6S)-3,4,5-trihydroxy-6-(5-hydroxy-4-keto-8-methoxy-2-phenyl-chromen-7-yl)oxy-tetrahydropyran-2-carboxylic acid

>  <PUBCHEM_IUPAC_INCHI>
InChI=1S/C22H20O11/c1-30-18-13(32-22-17(27)15(25)16(26)20(33-22)21(28)29)8-11(24)14-10(23)7-12(31-19(14)18)9-5-3-2-4-6-9/h2-8,15-17,20,22,24-27H,1H3,(H,28,29)/t15-,16-,17+,20-,22+/m0/s1

>  <PUBCHEM_IUPAC_INCHIKEY>
LNOHXHDWGCMVCO-NTKSAMNMSA-N

>  <PUBCHEM_XLOGP3_AA>
1.4

>  <PUBCHEM_EXACT_MASS>
460.100561

>  <PUBCHEM_MOLECULAR_FORMULA>
C22H20O11

>  <PUBCHEM_MOLECULAR_WEIGHT>
460.4

>  <PUBCHEM_OPENEYE_CAN_SMILES>
COC1=C(C=C(C2=C1OC(=CC2=O)C3=CC=CC=C3)O)OC4C(C(C(C(O4)C(=O)O)O)O)O

>  <PUBCHEM_OPENEYE_ISO_SMILES>
COC1=C(C=C(C2=C1OC(=CC2=O)C3=CC=CC=C3)O)O[C@H]4[C@@H]([C@H]([C@@H]([C@H](O4)C(=O)O)O)O)O

>  <PUBCHEM_CACTVS_TPSA>
172

>  <PUBCHEM_MONOISOTOPIC_WEIGHT>
460.100561

>  <PUBCHEM_TOTAL_CHARGE>
0

>  <PUBCHEM_HEAVY_ATOM_COUNT>
33

>  <PUBCHEM_ATOM_DEF_STEREO_COUNT>
5

>  <PUBCHEM_ATOM_UDEF_STEREO_COUNT>
0

>  <PUBCHEM_BOND_DEF_STEREO_COUNT>
0

>  <PUBCHEM_BOND_UDEF_STEREO_COUNT>
0

>  <PUBCHEM_ISOTOPIC_ATOM_COUNT>
0

>  <PUBCHEM_COMPONENT_COUNT>
1

>  <PUBCHEM_CACTVS_TAUTO_COUNT>
-1

>  <PUBCHEM_COORDINATE_TYPE>
1
5
255

>  <PUBCHEM_BONDANNOTATIONS>
16  17  5
18  19  8
18  20  8
19  21  8
15  2  5
20  23  8
21  22  8
22  23  8
22  24  8
24  26  8
25  26  8
27  29  8
27  30  8
29  31  8
12  3  5
30  32  8
31  33  8
32  33  8
13  4  6
14  5  6
8  21  8
8  25  8

>  <Favorite_cresset>
false

>  <MW_cresset>
459.4

>  <#Atoms_cresset>
33

>  <SlogP_cresset>
1.4

>  <TPSA_cresset>
175

>  <Flexibility_cresset>
7.6

>  <#RB_cresset>
9

>  <Rof5_cresset>
1

>  <Filename_cresset>
drag.50_988.sdf

>  <Confs_cresset>
0

>  <Poses_cresset>
0

$$$$
W_Site3d_Wogonoside_D
  xed2sdf_05210316543D
 
 52 55  0  0  1  0  0  0  0  0999 V2000
  -53.3380   -4.6618   16.3135 O   0  0  0  0  0  0  0  0  0  0  0  0
  -51.5975   -3.4067   17.4306 O   0  0  0  0  0  0  0  0  0  0  0  0
  -52.1865   -8.1612   18.3216 O   0  0  0  0  0  0  0  0  0  0  0  0
  -50.4956   -5.8231   18.4013 O   0  0  0  0  0  0  0  0  0  0  0  0
  -54.0289   -8.2973   16.1092 O   0  0  0  0  0  0  0  0  0  0  0  0
  -55.2622   -6.2934   13.9443 O   0  5  0  0  0  0  0  0  0  0  0  0
  -55.9641   -5.2120   15.8290 O   0  0  0  0  0  0  0  0  0  0  0  0
  -47.2448   -1.5499   17.3598 O   0  0  0  0  0  0  0  0  0  0  0  0
  -49.1810   -2.9880   18.6280 O   0  0  0  0  0  0  0  0  0  0  0  0
  -50.2261   -0.9868   13.6325 O   0  0  0  0  0  0  0  0  0  0  0  0
  -47.8549   -0.0373   13.6549 O   0  0  0  0  0  0  0  0  0  0  0  0
  -52.2464   -7.1387   17.3163 C   0  0  0  0  0  0  0  0  0  0  0  0
  -51.8455   -5.7769   17.9163 C   0  0  0  0  0  0  0  0  0  0  0  0
  -53.6655   -7.0538   16.7256 C   0  0  0  0  0  0  0  0  0  0  0  0
  -51.9958   -4.6698   16.8521 C   0  0  0  0  0  0  0  0  0  0  0  0
  -53.6956   -5.9129   15.6929 C   0  0  0  0  0  0  0  0  0  0  0  0
  -55.0814   -5.8011   15.1122 C   0  0  0  0  0  0  0  0  0  0  0  0
  -50.6475   -2.7126   16.8015 C   0  0  0  0  0  0  0  0  0  0  0  0
  -49.4136   -2.4955   17.3946 C   0  0  0  0  0  0  0  0  0  0  0  0
  -50.9156   -2.1981   15.5407 C   0  0  0  0  0  0  0  0  0  0  0  0
  -48.4372   -1.7585   16.7328 C   0  0  0  0  0  0  0  0  0  0  0  0
  -48.7158   -1.2571   15.4607 C   0  0  0  0  0  0  0  0  0  0  0  0
  -49.9627   -1.4813   14.8696 C   0  0  0  0  0  0  0  0  0  0  0  0
  -47.6830   -0.5052   14.7806 C   0  0  0  0  0  0  0  0  0  0  0  0
  -46.2708   -0.8420   16.6970 C   0  0  0  0  0  0  0  0  0  0  0  0
  -46.4467   -0.3198   15.4480 C   0  0  0  0  0  0  0  0  0  0  0  0
  -44.9838   -0.6615   17.4185 C   0  0  0  0  0  0  0  0  0  0  0  0
  -49.5524   -2.1661   19.7535 C   0  0  0  0  0  0  0  0  0  0  0  0
  -43.9893   -1.6302   17.4452 C   0  0  0  0  0  0  0  0  0  0  0  0
  -44.7603    0.5262   18.0987 C   0  0  0  0  0  0  0  0  0  0  0  0
  -42.8163   -1.4151   18.1269 C   0  0  0  0  0  0  0  0  0  0  0  0
  -43.5871    0.7411   18.7799 C   0  0  0  0  0  0  0  0  0  0  0  0
  -42.6117   -0.2296   18.7953 C   0  0  0  0  0  0  0  0  0  0  0  0
  -51.6050   -7.3729   16.5856 H   0  0  0  0  0  0  0  0  0  0  0  0
  -52.4502   -5.5712   18.6854 H   0  0  0  0  0  0  0  0  0  0  0  0
  -54.3252   -6.8702   17.4543 H   0  0  0  0  0  0  0  0  0  0  0  0
  -51.3936   -4.8453   16.0733 H   0  0  0  0  0  0  0  0  0  0  0  0
  -53.0364   -6.1162   14.9690 H   0  0  0  0  0  0  0  0  0  0  0  0
  -51.5810   -8.9142   18.0420 H   0  0  0  0  0  0  0  0  0  0  0  0
  -49.8355   -5.6448   17.6633 H   0  0  0  0  0  0  0  0  0  0  0  0
  -53.3146   -8.6140   15.4757 H   0  0  0  0  0  0  0  0  0  0  0  0
  -49.7506   -1.5111   12.9172 H   0  0  0  0  0  0  0  0  0  0  0  0
  -51.8096   -2.3522   15.1204 H   0  0  0  0  0  0  0  0  0  0  0  0
  -45.7081    0.1902   15.0071 H   0  0  0  0  0  0  0  0  0  0  0  0
  -49.9468   -1.3113   19.4162 H   0  0  0  0  0  0  0  0  0  0  0  0
  -50.2240   -2.6479   20.3163 H   0  0  0  0  0  0  0  0  0  0  0  0
  -48.7440   -1.9693   20.3079 H   0  0  0  0  0  0  0  0  0  0  0  0
  -44.1289   -2.4947   16.9623 H   0  0  0  0  0  0  0  0  0  0  0  0
  -45.4639    1.2367   18.0934 H   0  0  0  0  0  0  0  0  0  0  0  0
  -42.1090   -2.1219   18.1373 H   0  0  0  0  0  0  0  0  0  0  0  0
  -43.4414    1.6033   19.2647 H   0  0  0  0  0  0  0  0  0  0  0  0
  -41.7570   -0.0742   19.2906 H   0  0  0  0  0  0  0  0  0  0  0  0
  1 15  1  0
  1 16  1  0
  2 18  1  0
  6 17  1  0
  7 17  2  0
  8 21  1  0
  8 25  1  0
  9 19  1  0
  9 28  1  0
 10 23  1  0
 11 24  2  0
 12  3  1  0
 12 13  1  0
 12 14  1  0
 13  4  1  0
 13 15  1  0
 14  5  1  0
 14 16  1  0
 15  2  1  0
 16 17  1  0
 18 19  2  0
 18 20  1  0
 19 21  1  0
 20 23  2  0
 21 22  2  0
 22 23  1  0
 22 24  1  0
 24 26  1  0
 25 26  2  0
 25 27  1  0
 27 29  2  0
 27 30  1  0
 29 31  1  0
 30 32  2  0
 31 33  2  0
 32 33  1  0
  3 39  1  0
  4 40  1  0
  5 41  1  0
 10 42  1  0
 12 34  1  0
 13 35  1  0
 14 36  1  0
 15 37  1  0
 16 38  1  0
 20 43  1  0
 26 44  1  0
 28 45  1  0
 28 46  1  0
 28 47  1  0
 29 48  1  0
 30 49  1  0
 31 50  1  0
 32 51  1  0
 33 52  1  0
M  CHG  1   6  -1
M  END
>  <LF dG>
-8.125

>  <LF VSscore>
-11.605

>  <LF Rank Score>
-10.998

>  <LF LE>
-0.246

>  <LF Structure Name>
C:\Users\Odara\AppData\Local\Temp\LeadFinder_15316_1\Ligand_1.sdf

>  <LF SDF id>
0

>  <LF Pose rank>
0

>  <LF version>
2001 1, 19 January 2019

>  <PUBCHEM_COMPOUND_CID>
3084961

>  <PUBCHEM_COMPOUND_CANONICALIZED>
1

>  <PUBCHEM_CACTVS_COMPLEXITY>
763

>  <PUBCHEM_CACTVS_HBOND_ACCEPTOR>
11

>  <PUBCHEM_CACTVS_HBOND_DONOR>
5

>  <PUBCHEM_CACTVS_ROTATABLE_BOND>
5

>  <PUBCHEM_CACTVS_SUBSKEYS>
AAADceB4PAAAAAAAAAAAAAAAAAAAAAAAAAA0YIEAAAAAAACBQAAAGgAACAAADBSwmAMyDoAABgCIAqDSCAICCAAkIAAIiAFGiMgdNzaGNR6ieWKl4BUPuQfK7LzOIQABCAAIQABCAAIQABCAAAAAAAAAAA==

>  <PUBCHEM_IUPAC_OPENEYE_NAME>
(2S,3S,4S,5R,6S)-3,4,5-trihydroxy-6-(5-hydroxy-8-methoxy-4-oxo-2-phenyl-chromen-7-yl)oxy-tetrahydropyran-2-carboxylic acid

>  <PUBCHEM_IUPAC_CAS_NAME>
(2S,3S,4S,5R,6S)-3,4,5-trihydroxy-6-[(5-hydroxy-8-methoxy-4-oxo-2-phenyl-1-benzopyran-7-yl)oxy]-2-oxanecarboxylic acid

>  <PUBCHEM_IUPAC_NAME_MARKUP>
(2<I>S</I>,3<I>S</I>,4<I>S</I>,5<I>R</I>,6<I>S</I>)-3,4,5-trihydroxy-6-(5-hydroxy-8-methoxy-4-oxo-2-phenylchromen-7-yl)oxyoxane-2-carboxylic acid

>  <PUBCHEM_IUPAC_NAME>
(2S,3S,4S,5R,6S)-3,4,5-trihydroxy-6-(5-hydroxy-8-methoxy-4-oxo-2-phenylchromen-7-yl)oxyoxane-2-carboxylic acid

>  <PUBCHEM_IUPAC_SYSTEMATIC_NAME>
(2S,3S,4S,5R,6S)-6-(8-methoxy-5-oxidanyl-4-oxidanylidene-2-phenyl-chromen-7-yl)oxy-3,4,5-tris(oxidanyl)oxane-2-carboxylic acid

>  <PUBCHEM_IUPAC_TRADITIONAL_NAME>
(2S,3S,4S,5R,6S)-3,4,5-trihydroxy-6-(5-hydroxy-4-keto-8-methoxy-2-phenyl-chromen-7-yl)oxy-tetrahydropyran-2-carboxylic acid

>  <PUBCHEM_IUPAC_INCHI>
InChI=1S/C22H20O11/c1-30-18-13(32-22-17(27)15(25)16(26)20(33-22)21(28)29)8-11(24)14-10(23)7-12(31-19(14)18)9-5-3-2-4-6-9/h2-8,15-17,20,22,24-27H,1H3,(H,28,29)/t15-,16-,17+,20-,22+/m0/s1

>  <PUBCHEM_IUPAC_INCHIKEY>
LNOHXHDWGCMVCO-NTKSAMNMSA-N

>  <PUBCHEM_XLOGP3_AA>
1.4

>  <PUBCHEM_EXACT_MASS>
460.100561

>  <PUBCHEM_MOLECULAR_FORMULA>
C22H20O11

>  <PUBCHEM_MOLECULAR_WEIGHT>
460.4

>  <PUBCHEM_OPENEYE_CAN_SMILES>
COC1=C(C=C(C2=C1OC(=CC2=O)C3=CC=CC=C3)O)OC4C(C(C(C(O4)C(=O)O)O)O)O

>  <PUBCHEM_OPENEYE_ISO_SMILES>
COC1=C(C=C(C2=C1OC(=CC2=O)C3=CC=CC=C3)O)O[C@H]4[C@@H]([C@H]([C@@H]([C@H](O4)C(=O)O)O)O)O

>  <PUBCHEM_CACTVS_TPSA>
172

>  <PUBCHEM_MONOISOTOPIC_WEIGHT>
460.100561

>  <PUBCHEM_TOTAL_CHARGE>
0

>  <PUBCHEM_HEAVY_ATOM_COUNT>
33

>  <PUBCHEM_ATOM_DEF_STEREO_COUNT>
5

>  <PUBCHEM_ATOM_UDEF_STEREO_COUNT>
0

>  <PUBCHEM_BOND_DEF_STEREO_COUNT>
0

>  <PUBCHEM_BOND_UDEF_STEREO_COUNT>
0

>  <PUBCHEM_ISOTOPIC_ATOM_COUNT>
0

>  <PUBCHEM_COMPONENT_COUNT>
1

>  <PUBCHEM_CACTVS_TAUTO_COUNT>
-1

>  <PUBCHEM_COORDINATE_TYPE>
1
5
255

>  <PUBCHEM_BONDANNOTATIONS>
16  17  5
18  19  8
18  20  8
19  21  8
15  2  5
20  23  8
21  22  8
22  23  8
22  24  8
24  26  8
25  26  8
27  29  8
27  30  8
29  31  8
12  3  5
30  32  8
31  33  8
32  33  8
13  4  6
14  5  6
8  21  8
8  25  8

>  <Favorite_cresset>
false

>  <MW_cresset>
459.4

>  <#Atoms_cresset>
33

>  <SlogP_cresset>
1.4

>  <TPSA_cresset>
175

>  <Flexibility_cresset>
7.6

>  <#RB_cresset>
9

>  <Rof5_cresset>
1

>  <Filename_cresset>
drag.48_864.sdf

>  <Confs_cresset>
0

>  <Poses_cresset>
0

$$$$
Site3d_VTRRT_D
  xed2sdf_05210316543D
 
 92 97  0  0  1  0  0  0  0  0999 V2000
  -49.6721  -16.3861   27.6361 C   0  0  0  0  0  0  0  0  0  0  0  0
  -49.3894  -17.2445   26.5978 C   0  0  0  0  0  0  0  0  0  0  0  0
  -48.0846  -17.4642   26.2124 C   0  0  0  0  0  0  0  0  0  0  0  0
  -47.0647  -16.8180   26.8767 C   0  0  0  0  0  0  0  0  0  0  0  0
  -47.3452  -15.9601   27.9153 C   0  0  0  0  0  0  0  0  0  0  0  0
  -48.6497  -15.7439   28.2959 C   0  0  0  0  0  0  0  0  0  0  0  0
  -47.7699  -18.4144   25.0656 C   0  0  0  0  0  0  0  0  0  0  0  0
  -48.5352  -18.1360   23.7515 C   0  0  0  0  0  0  0  0  0  0  0  0
  -49.6692  -19.1185   23.6321 N   0  3  0  0  0  0  0  0  0  0  0  0
  -47.5921  -18.2234   22.5256 C   0  0  0  0  0  0  0  0  0  0  0  0
  -46.5923  -19.2365   22.7240 O   0  0  0  0  0  0  0  0  0  0  0  0
  -46.9174  -16.8555   22.2563 C   0  0  0  0  0  0  0  0  0  0  0  0
  -46.9781  -16.3559   20.7912 C   0  0  0  0  0  0  0  0  0  0  0  0
  -47.7901  -17.3051   19.8781 C   0  0  0  0  0  0  0  0  0  0  0  0
  -46.9608  -18.1333   18.9062 C   0  0  0  0  0  0  0  0  0  0  0  0
  -46.0247  -19.0270   19.3792 C   0  0  0  0  0  0  0  0  0  0  0  0
  -45.2772  -19.7804   18.5028 C   0  0  0  0  0  0  0  0  0  0  0  0
  -45.4617  -19.6429   17.1464 C   0  0  0  0  0  0  0  0  0  0  0  0
  -46.3946  -18.7515   16.6686 C   0  0  0  0  0  0  0  0  0  0  0  0
  -47.1413  -17.9991   17.5467 C   0  0  0  0  0  0  0  0  0  0  0  0
  -47.4762  -14.9769   20.6628 N   0  0  0  0  0  0  0  0  0  0  0  0
  -46.6992  -14.1248   19.6931 P   0  0  0  0  0  0  0  0  0  0  0  0
  -47.7119  -13.2325   18.8170 O   0  0  0  0  0  0  0  0  0  0  0  0
  -45.8194  -13.0175   20.4621 O   0  0  0  0  0  0  0  0  0  0  0  0
  -45.8426  -14.9711   18.7868 O   0  0  0  0  0  0  0  0  0  0  0  0
  -48.4494  -12.1865   19.4709 C   0  0  0  0  0  0  0  0  0  0  0  0
  -44.5751  -12.6843   20.0162 C   0  0  0  0  0  0  0  0  0  0  0  0
  -44.4150  -11.5916   19.1870 C   0  0  0  0  0  0  0  0  0  0  0  0
  -43.1631  -11.2475   18.7342 C   0  0  0  0  0  0  0  0  0  0  0  0
  -42.0661  -11.9894   19.1109 C   0  0  0  0  0  0  0  0  0  0  0  0
  -42.2210  -13.0773   19.9410 C   0  0  0  0  0  0  0  0  0  0  0  0
  -43.4721  -13.4261   20.3922 C   0  0  0  0  0  0  0  0  0  0  0  0
  -47.6642  -10.8624   19.4540 C   0  0  0  0  0  0  0  0  0  0  0  0
  -47.5319  -10.2950   20.7659 O   0  0  0  0  0  0  0  0  0  0  0  0
  -47.3706   -8.8651   20.6690 C   0  0  0  0  0  0  0  0  0  0  0  0
  -47.7226   -8.4919   19.2067 C   0  0  0  0  0  0  0  0  0  0  0  0
  -48.3376   -9.7674   18.6156 C   0  0  0  0  0  0  0  0  0  0  0  0
  -49.7599   -9.7548   18.8140 O   0  0  0  0  0  0  0  0  0  0  0  0
  -48.6329   -7.3851   19.1045 O   0  0  0  0  0  0  0  0  0  0  0  0
  -48.2218   -8.1953   21.7444 C   0  0  0  0  0  0  0  0  0  0  0  0
  -45.9575   -8.5467   20.9179 C   0  0  0  0  0  0  0  0  0  0  0  0
  -44.8650   -8.3006   21.1091 N   0  0  0  0  0  0  0  0  0  0  0  0
  -49.4330   -8.6768   22.1218 N   0  0  0  0  0  0  0  0  0  0  0  0
  -49.8753   -7.8182   23.0775 C   0  0  0  0  0  0  0  0  0  0  0  0
  -48.9755   -6.8272   23.3051 C   0  0  0  0  0  0  0  0  0  0  0  0
  -47.9098   -7.0797   22.4370 C   0  0  0  0  0  0  0  0  0  0  0  0
  -50.1832   -9.7531   21.7406 N   0  0  0  0  0  0  0  0  0  0  0  0
  -51.3451   -9.9255   22.3268 C   0  0  0  0  0  0  0  0  0  0  0  0
  -51.8929   -9.1246   23.2961 N   0  0  0  0  0  0  0  0  0  0  0  0
  -51.1443   -8.0737   23.6601 C   0  0  0  0  0  0  0  0  0  0  0  0
  -51.6567   -7.2421   24.6270 N   0  0  0  0  0  0  0  0  0  0  0  0
  -48.9017  -17.2057   23.7727 H   0  0  0  0  0  0  0  0  0  0  0  0
  -48.1432  -18.4708   21.7285 H   0  0  0  0  0  0  0  0  0  0  0  0
  -46.0270  -16.3572   20.4812 H   0  0  0  0  0  0  0  0  0  0  0  0
  -46.7798  -11.1190   19.0633 H   0  0  0  0  0  0  0  0  0  0  0  0
  -46.9070   -8.1870   18.7148 H   0  0  0  0  0  0  0  0  0  0  0  0
  -48.1989   -9.8835   17.6322 H   0  0  0  0  0  0  0  0  0  0  0  0
  -50.6206  -16.2292   27.9109 H   0  0  0  0  0  0  0  0  0  0  0  0
  -50.1344  -17.7108   26.1208 H   0  0  0  0  0  0  0  0  0  0  0  0
  -46.1158  -16.9735   26.6025 H   0  0  0  0  0  0  0  0  0  0  0  0
  -46.6012  -15.4937   28.3937 H   0  0  0  0  0  0  0  0  0  0  0  0
  -48.8543  -15.1211   29.0507 H   0  0  0  0  0  0  0  0  0  0  0  0
  -47.9889  -19.3437   25.3630 H   0  0  0  0  0  0  0  0  0  0  0  0
  -46.8012  -18.2831   24.8544 H   0  0  0  0  0  0  0  0  0  0  0  0
  -50.1364  -19.1895   24.4098 H   0  0  0  0  0  0  0  0  0  0  0  0
  -49.3734  -19.9537   23.4240 H   0  0  0  0  0  0  0  0  0  0  0  0
  -47.0023  -20.1524   22.7891 H   0  0  0  0  0  0  0  0  0  0  0  0
  -45.9555  -16.9283   22.5197 H   0  0  0  0  0  0  0  0  0  0  0  0
  -47.4319  -16.1869   22.7931 H   0  0  0  0  0  0  0  0  0  0  0  0
  -48.4324  -16.7520   19.3475 H   0  0  0  0  0  0  0  0  0  0  0  0
  -48.2392  -17.9594   20.4864 H   0  0  0  0  0  0  0  0  0  0  0  0
  -45.8878  -19.1289   20.3646 H   0  0  0  0  0  0  0  0  0  0  0  0
  -44.5999  -20.4277   18.8522 H   0  0  0  0  0  0  0  0  0  0  0  0
  -44.9190  -20.1898   16.5090 H   0  0  0  0  0  0  0  0  0  0  0  0
  -46.5302  -18.6501   15.6830 H   0  0  0  0  0  0  0  0  0  0  0  0
  -47.8180  -17.3519   17.1961 H   0  0  0  0  0  0  0  0  0  0  0  0
  -48.4728  -14.9760   20.4162 H   0  0  0  0  0  0  0  0  0  0  0  0
  -48.6262  -12.4524   20.4185 H   0  0  0  0  0  0  0  0  0  0  0  0
  -49.3104  -12.0505   18.9809 H   0  0  0  0  0  0  0  0  0  0  0  0
  -45.2105  -11.0498   18.9152 H   0  0  0  0  0  0  0  0  0  0  0  0
  -43.0494  -10.4578   18.1312 H   0  0  0  0  0  0  0  0  0  0  0  0
  -41.1562  -11.7380   18.7816 H   0  0  0  0  0  0  0  0  0  0  0  0
  -41.4231  -13.6139   20.2152 H   0  0  0  0  0  0  0  0  0  0  0  0
  -43.5835  -14.2177   20.9932 H   0  0  0  0  0  0  0  0  0  0  0  0
  -50.0334  -10.3905   19.5438 H   0  0  0  0  0  0  0  0  0  0  0  0
  -49.1550   -7.4195   18.2452 H   0  0  0  0  0  0  0  0  0  0  0  0
  -49.0583   -6.0740   23.9576 H   0  0  0  0  0  0  0  0  0  0  0  0
  -47.0748   -6.5369   22.3462 H   0  0  0  0  0  0  0  0  0  0  0  0
  -51.8829  -10.7176   22.0386 H   0  0  0  0  0  0  0  0  0  0  0  0
  -52.4455   -7.4129   24.9777 H   0  0  0  0  0  0  0  0  0  0  0  0
  -51.2011   -6.5382   24.8974 H   0  0  0  0  0  0  0  0  0  0  0  0
  -50.3389  -18.7832   22.8539 H   0  0  0  0  0  0  0  0  0  0  0  0
  1  2  2  0
  2  3  1  0
  3  4  2  0
  3  7  1  0
  4  5  1  0
  5  6  2  0
  6  1  1  0
  7  8  1  0
  8  9  1  0
  8 10  1  0
 10 11  1  0
 10 12  1  0
 12 13  1  0
 13 14  1  0
 13 21  1  0
 14 15  1  0
 15 16  2  0
 16 17  1  0
 17 18  2  0
 18 19  1  0
 19 20  2  0
 20 15  1  0
 21 22  1  0
 22 23  1  0
 22 24  1  0
 22 25  2  0
 23 26  1  0
 24 27  1  0
 27 28  2  0
 28 29  1  0
 29 30  2  0
 30 31  1  0
 31 32  2  0
 32 27  1  0
 33 26  1  0
 33 34  1  0
 34 35  1  0
 35 36  1  0
 35 40  1  0
 35 41  1  0
 36 37  1  0
 36 39  1  0
 37 33  1  0
 37 38  1  0
 40 43  1  0
 41 42  3  0
 43 44  1  0
 43 47  1  0
 44 45  2  0
 45 46  1  0
 46 40  2  0
 47 48  2  0
 48 49  1  0
 49 50  2  0
 50 44  1  0
 50 51  1  0
  1 58  1  0
  2 59  1  0
  4 60  1  0
  5 61  1  0
  6 62  1  0
  7 63  1  0
  7 64  1  0
  8 52  1  0
  9 65  1  0
  9 66  1  0
  9 92  1  0
 10 53  1  0
 11 67  1  0
 12 68  1  0
 12 69  1  0
 13 54  1  0
 14 70  1  0
 14 71  1  0
 16 72  1  0
 17 73  1  0
 18 74  1  0
 19 75  1  0
 20 76  1  0
 21 77  1  0
 26 78  1  0
 26 79  1  0
 28 80  1  0
 29 81  1  0
 30 82  1  0
 31 83  1  0
 32 84  1  0
 33 55  1  0
 36 56  1  0
 37 57  1  0
 38 85  1  0
 39 86  1  0
 45 87  1  0
 46 88  1  0
 48 89  1  0
 51 90  1  0
 51 91  1  0
M  CHG  1   9   1
M  END
>  <LF dG>
-8.023

>  <LF VSscore>
-13.165

>  <LF Rank Score>
-12.077

>  <LF LE>
-0.157

>  <LF Structure Name>
C:\Users\Odara\AppData\Local\Temp\LeadFinder_6760_1\Ligand_1.sdf

>  <LF SDF id>
0

>  <LF Pose rank>
0

>  <LF version>
2001 1, 19 January 2019

>  <Favorite_cresset>
false

>  <MW_cresset>
714.7

>  <#Atoms_cresset>
51

>  <SlogP_cresset>
4

>  <TPSA_cresset>
225.1

>  <Flexibility_cresset>
17.1

>  <#RB_cresset>
18

>  <Rof5_cresset>
3

>  <Filename_cresset>
drag.11_538.sdf

>  <Confs_cresset>
0

>  <Poses_cresset>
0

$$$$
W_Site3d_VTRRT_D
  xed2sdf_05210316543D
 
 92 97  0  0  1  0  0  0  0  0999 V2000
  -43.9396   -1.5797   16.0101 C   0  0  0  0  0  0  0  0  0  0  0  0
  -45.0911   -1.6600   15.2607 C   0  0  0  0  0  0  0  0  0  0  0  0
  -46.2379   -1.0211   15.6787 C   0  0  0  0  0  0  0  0  0  0  0  0
  -46.2240   -0.3020   16.8541 C   0  0  0  0  0  0  0  0  0  0  0  0
  -45.0733   -0.2207   17.6044 C   0  0  0  0  0  0  0  0  0  0  0  0
  -43.9303   -0.8592   17.1824 C   0  0  0  0  0  0  0  0  0  0  0  0
  -47.5086   -1.1046   14.8464 C   0  0  0  0  0  0  0  0  0  0  0  0
  -47.8847   -2.5224   14.3605 C   0  0  0  0  0  0  0  0  0  0  0  0
  -48.4374   -2.4327   12.9637 N   0  3  0  0  0  0  0  0  0  0  0  0
  -48.9114   -3.1488   15.3306 C   0  0  0  0  0  0  0  0  0  0  0  0
  -49.6529   -2.1145   15.9988 O   0  0  0  0  0  0  0  0  0  0  0  0
  -48.2255   -4.0505   16.3789 C   0  0  0  0  0  0  0  0  0  0  0  0
  -49.1763   -5.1623   16.8709 C   0  0  0  0  0  0  0  0  0  0  0  0
  -50.0353   -5.6818   15.6973 C   0  0  0  0  0  0  0  0  0  0  0  0
  -51.5387   -5.5123   15.8574 C   0  0  0  0  0  0  0  0  0  0  0  0
  -52.2272   -6.2869   16.7647 C   0  0  0  0  0  0  0  0  0  0  0  0
  -53.5864   -6.1354   16.9170 C   0  0  0  0  0  0  0  0  0  0  0  0
  -54.2639   -5.2057   16.1623 C   0  0  0  0  0  0  0  0  0  0  0  0
  -53.5808   -4.4295   15.2544 C   0  0  0  0  0  0  0  0  0  0  0  0
  -52.2216   -4.5825   15.1033 C   0  0  0  0  0  0  0  0  0  0  0  0
  -48.3619   -6.2644   17.4039 N   0  0  0  0  0  0  0  0  0  0  0  0
  -48.7264   -6.6715   18.8070 P   0  0  0  0  0  0  0  0  0  0  0  0
  -47.6122   -7.6776   19.3849 O   0  0  0  0  0  0  0  0  0  0  0  0
  -50.0832   -7.5389   18.8492 O   0  0  0  0  0  0  0  0  0  0  0  0
  -48.8452   -5.4582   19.6936 O   0  0  0  0  0  0  0  0  0  0  0  0
  -46.3078   -7.6822   18.7835 C   0  0  0  0  0  0  0  0  0  0  0  0
  -50.7609   -7.7558   20.0152 C   0  0  0  0  0  0  0  0  0  0  0  0
  -50.3815   -8.7512   20.8970 C   0  0  0  0  0  0  0  0  0  0  0  0
  -51.0847   -8.9519   22.0612 C   0  0  0  0  0  0  0  0  0  0  0  0
  -52.1719   -8.1599   22.3549 C   0  0  0  0  0  0  0  0  0  0  0  0
  -52.5556   -7.1676   21.4818 C   0  0  0  0  0  0  0  0  0  0  0  0
  -51.8550   -6.9678   20.3158 C   0  0  0  0  0  0  0  0  0  0  0  0
  -45.7999   -9.1256   18.6336 C   0  0  0  0  0  0  0  0  0  0  0  0
  -45.2555   -9.6240   19.8678 O   0  0  0  0  0  0  0  0  0  0  0  0
  -44.1630  -10.5258   19.6046 C   0  0  0  0  0  0  0  0  0  0  0  0
  -43.9945  -10.5499   18.0664 C   0  0  0  0  0  0  0  0  0  0  0  0
  -44.6713   -9.2554   17.6003 C   0  0  0  0  0  0  0  0  0  0  0  0
  -43.7423   -8.1639   17.6913 O   0  0  0  0  0  0  0  0  0  0  0  0
  -42.6259  -10.6218   17.6367 O   0  0  0  0  0  0  0  0  0  0  0  0
  -42.9757   -9.9920   20.3993 C   0  0  0  0  0  0  0  0  0  0  0  0
  -44.5412  -11.8616   20.0854 C   0  0  0  0  0  0  0  0  0  0  0  0
  -44.8337  -12.8945   20.4562 N   0  0  0  0  0  0  0  0  0  0  0  0
  -41.7719  -10.6151   20.3778 N   0  0  0  0  0  0  0  0  0  0  0  0
  -40.9726   -9.8738   21.1892 C   0  0  0  0  0  0  0  0  0  0  0  0
  -41.6445   -8.8150   21.7099 C   0  0  0  0  0  0  0  0  0  0  0  0
  -42.9407   -8.9012   21.1944 C   0  0  0  0  0  0  0  0  0  0  0  0
  -41.2951  -11.7318   19.7505 N   0  0  0  0  0  0  0  0  0  0  0  0
  -40.0416  -12.0609   19.9587 C   0  0  0  0  0  0  0  0  0  0  0  0
  -39.1462  -11.3900   20.7516 N   0  0  0  0  0  0  0  0  0  0  0  0
  -39.6287  -10.2979   21.3610 C   0  0  0  0  0  0  0  0  0  0  0  0
  -38.7640   -9.5973   22.1674 N   0  0  0  0  0  0  0  0  0  0  0  0
  -47.0752   -3.1093   14.3458 H   0  0  0  0  0  0  0  0  0  0  0  0
  -49.5329   -3.7155   14.7894 H   0  0  0  0  0  0  0  0  0  0  0  0
  -49.7827   -4.8011   17.5787 H   0  0  0  0  0  0  0  0  0  0  0  0
  -46.6026   -9.6463   18.3434 H   0  0  0  0  0  0  0  0  0  0  0  0
  -44.4030  -11.3718   17.6698 H   0  0  0  0  0  0  0  0  0  0  0  0
  -44.9930   -9.2554   16.6536 H   0  0  0  0  0  0  0  0  0  0  0  0
  -43.1095   -2.0449   15.7025 H   0  0  0  0  0  0  0  0  0  0  0  0
  -45.0955   -2.1843   14.4091 H   0  0  0  0  0  0  0  0  0  0  0  0
  -47.0539    0.1626   17.1632 H   0  0  0  0  0  0  0  0  0  0  0  0
  -45.0681    0.3027   18.4566 H   0  0  0  0  0  0  0  0  0  0  0  0
  -43.0934   -0.8002   17.7267 H   0  0  0  0  0  0  0  0  0  0  0  0
  -47.3931   -0.5202   14.0432 H   0  0  0  0  0  0  0  0  0  0  0  0
  -48.2529   -0.8120   15.4464 H   0  0  0  0  0  0  0  0  0  0  0  0
  -47.8349   -2.0934   12.3737 H   0  0  0  0  0  0  0  0  0  0  0  0
  -49.1678   -1.8912   12.9251 H   0  0  0  0  0  0  0  0  0  0  0  0
  -50.2651   -1.6331   15.3621 H   0  0  0  0  0  0  0  0  0  0  0  0
  -47.9443   -3.4906   17.1583 H   0  0  0  0  0  0  0  0  0  0  0  0
  -47.4312   -4.4826   15.9517 H   0  0  0  0  0  0  0  0  0  0  0  0
  -49.8437   -6.6564   15.5818 H   0  0  0  0  0  0  0  0  0  0  0  0
  -49.7817   -5.1255   14.9058 H   0  0  0  0  0  0  0  0  0  0  0  0
  -51.7369   -6.9626   17.3153 H   0  0  0  0  0  0  0  0  0  0  0  0
  -54.0819   -6.7009   17.5765 H   0  0  0  0  0  0  0  0  0  0  0  0
  -55.2516   -5.0943   16.2733 H   0  0  0  0  0  0  0  0  0  0  0  0
  -54.0721   -3.7539   14.7045 H   0  0  0  0  0  0  0  0  0  0  0  0
  -51.7270   -4.0169   14.4432 H   0  0  0  0  0  0  0  0  0  0  0  0
  -48.4095   -7.0689   16.7672 H   0  0  0  0  0  0  0  0  0  0  0  0
  -45.6748   -7.1642   19.3589 H   0  0  0  0  0  0  0  0  0  0  0  0
  -46.3636   -7.2607   17.8785 H   0  0  0  0  0  0  0  0  0  0  0  0
  -49.5919   -9.3276   20.6868 H   0  0  0  0  0  0  0  0  0  0  0  0
  -50.8065   -9.6735   22.6950 H   0  0  0  0  0  0  0  0  0  0  0  0
  -52.6825   -8.3055   23.2025 H   0  0  0  0  0  0  0  0  0  0  0  0
  -53.3447   -6.5916   21.6951 H   0  0  0  0  0  0  0  0  0  0  0  0
  -52.1387   -6.2484   19.6820 H   0  0  0  0  0  0  0  0  0  0  0  0
  -42.8345   -8.4261   17.3460 H   0  0  0  0  0  0  0  0  0  0  0  0
  -42.1326   -9.7690   17.8410 H   0  0  0  0  0  0  0  0  0  0  0  0
  -41.2868   -8.1190   22.3324 H   0  0  0  0  0  0  0  0  0  0  0  0
  -43.6977   -8.2747   21.3792 H   0  0  0  0  0  0  0  0  0  0  0  0
  -39.7068  -12.8806   19.4938 H   0  0  0  0  0  0  0  0  0  0  0  0
  -37.9353   -9.8763   22.2664 H   0  0  0  0  0  0  0  0  0  0  0  0
  -39.0341   -8.8709   22.5862 H   0  0  0  0  0  0  0  0  0  0  0  0
  -48.7218   -3.4226   12.6387 H   0  0  0  0  0  0  0  0  0  0  0  0
  1  2  2  0
  2  3  1  0
  3  4  2  0
  3  7  1  0
  4  5  1  0
  5  6  2  0
  6  1  1  0
  7  8  1  0
  8  9  1  0
  8 10  1  0
 10 11  1  0
 10 12  1  0
 12 13  1  0
 13 14  1  0
 13 21  1  0
 14 15  1  0
 15 16  2  0
 16 17  1  0
 17 18  2  0
 18 19  1  0
 19 20  2  0
 20 15  1  0
 21 22  1  0
 22 23  1  0
 22 24  1  0
 22 25  2  0
 23 26  1  0
 24 27  1  0
 27 28  2  0
 28 29  1  0
 29 30  2  0
 30 31  1  0
 31 32  2  0
 32 27  1  0
 33 26  1  0
 33 34  1  0
 34 35  1  0
 35 36  1  0
 35 40  1  0
 35 41  1  0
 36 37  1  0
 36 39  1  0
 37 33  1  0
 37 38  1  0
 40 43  1  0
 41 42  3  0
 43 44  1  0
 43 47  1  0
 44 45  2  0
 45 46  1  0
 46 40  2  0
 47 48  2  0
 48 49  1  0
 49 50  2  0
 50 44  1  0
 50 51  1  0
  1 58  1  0
  2 59  1  0
  4 60  1  0
  5 61  1  0
  6 62  1  0
  7 63  1  0
  7 64  1  0
  8 52  1  0
  9 65  1  0
  9 66  1  0
  9 92  1  0
 10 53  1  0
 11 67  1  0
 12 68  1  0
 12 69  1  0
 13 54  1  0
 14 70  1  0
 14 71  1  0
 16 72  1  0
 17 73  1  0
 18 74  1  0
 19 75  1  0
 20 76  1  0
 21 77  1  0
 26 78  1  0
 26 79  1  0
 28 80  1  0
 29 81  1  0
 30 82  1  0
 31 83  1  0
 32 84  1  0
 33 55  1  0
 36 56  1  0
 37 57  1  0
 38 85  1  0
 39 86  1  0
 45 87  1  0
 46 88  1  0
 48 89  1  0
 51 90  1  0
 51 91  1  0
M  CHG  1   9   1
M  END
>  <LF dG>
-7.931

>  <LF VSscore>
-13.982

>  <LF Rank Score>
-12.988

>  <LF LE>
-0.156

>  <LF Structure Name>
C:\Users\Odara\AppData\Local\Temp\LeadFinder_13972_1\Ligand_1.sdf

>  <LF SDF id>
0

>  <LF Pose rank>
0

>  <LF version>
2001 1, 19 January 2019

>  <Favorite_cresset>
false

>  <MW_cresset>
714.7

>  <#Atoms_cresset>
51

>  <SlogP_cresset>
4

>  <TPSA_cresset>
225.1

>  <Flexibility_cresset>
17.1

>  <#RB_cresset>
18

>  <Rof5_cresset>
3

>  <Filename_cresset>
drag.9_284.sdf

>  <Confs_cresset>
0

>  <Poses_cresset>
0

$$$$
