64143
  RxDock  02242101303D
librxdock.so/0.1.0
 44 47  0  0  0  0  0  0  0  0999 V2000
  -46.3853   -0.3000   14.6572 S   0  0  0  0  0  0
  -50.5829   -4.4163   19.7102 O   0  0  0  0  0  0
  -45.1112   -3.6758   17.1223 O   0  0  0  0  0  0
  -48.9684   -0.8592   18.2716 O   0  0  0  0  0  0
  -45.1814    1.9986   21.6250 O   0  0  0  0  0  0
  -48.4572   -4.7820   18.0464 N   0  0  0  0  0  0
  -51.0754   -2.4340   18.5938 N   0  0  0  0  0  0
  -46.7684   -0.9515   17.5457 N   0  0  0  0  0  0
  -50.7142   -6.2261   16.7125 C   0  0  0  0  0  0
  -49.4307   -6.9423   17.1711 C   0  0  0  0  0  0
  -50.4354   -4.7338   16.4606 C   0  0  0  0  0  0
  -48.7636   -6.1907   18.3383 C   0  0  0  0  0  0
  -51.8897   -6.4501   17.6793 C   0  0  0  0  0  0
  -49.6982   -8.4170   17.5147 C   0  0  0  0  0  0
  -49.6205   -4.0318   17.5574 C   0  0  0  0  0  0
  -52.1342   -7.9342   17.9359 C   0  0  0  0  0  0
  -50.8782   -8.6196   18.4602 C   0  0  0  0  0  0
  -47.3132   -4.6478   17.1440 C   0  0  0  0  0  0
  -50.4635   -3.6664   18.7450 C   0  0  0  0  0  0
  -46.4745   -3.3992   17.4512 C   0  0  0  0  0  0
  -46.9197   -2.1204   16.7049 C   0  0  0  0  0  0
  -51.9576   -1.8624   19.5855 C   0  0  0  0  0  0
  -46.1352   -1.9469   15.3948 C   0  0  0  0  0  0
  -53.1073   -2.8376   19.8633 C   0  0  0  0  0  0
  -51.1671   -1.6118   20.8740 C   0  0  0  0  0  0
  -52.5232   -0.5388   19.0580 C   0  0  0  0  0  0
  -47.8227   -0.4163   18.2658 C   0  0  0  0  0  0
  -47.5107    0.7999   19.0596 C   0  0  0  0  0  0
  -48.1319   -0.3499   14.2770 C   0  0  0  0  0  0
  -46.4672    0.8116   19.9850 C   0  0  0  0  0  0
  -48.2835    1.9449   18.8655 C   0  0  0  0  0  0
  -48.6028    0.2056   13.0874 C   0  0  0  0  0  0
  -49.0234   -0.9437   15.1704 C   0  0  0  0  0  0
  -46.1963    1.9681   20.7162 C   0  0  0  0  0  0
  -45.6331   -0.4115   20.1994 C   0  0  0  0  0  0
  -48.0127    3.1014   19.5969 C   0  0  0  0  0  0
  -49.9652    0.1671   12.7909 C   0  0  0  0  0  0
  -50.3859   -0.9822   14.8738 C   0  0  0  0  0  0
  -46.9692    3.1130   20.5224 C   0  0  0  0  0  0
  -50.8568   -0.4267   13.6843 C   0  0  0  0  0  0
  -50.8328   -1.8572   17.7940 H   0  0  0  0  0  0
  -44.5760   -2.9332   17.4504 H   0  0  0  0  0  0
  -45.8465   -0.5307   17.6233 H   0  0  0  0  0  0
  -44.7859    2.8871   21.6301 H   0  0  0  0  0  0
  1 23  1  0  0  0
  1 29  1  0  0  0
  2 19  2  0  0  0
  3 20  1  0  0  0
  3 42  1  0  0  0
  4 27  2  0  0  0
  5 34  1  0  0  0
  5 44  1  0  0  0
  6 12  1  0  0  0
  6 15  1  0  0  0
  6 18  1  0  0  0
  7 19  1  0  0  0
  7 22  1  0  0  0
  7 41  1  0  0  0
  8 21  1  0  0  0
  8 27  1  0  0  0
  8 43  1  0  0  0
  9 10  1  0  0  0
  9 11  1  0  0  0
  9 13  1  0  0  0
 10 12  1  0  0  0
 10 14  1  0  0  0
 11 15  1  0  0  0
 13 16  1  0  0  0
 14 17  1  0  0  0
 15 19  1  0  0  0
 16 17  1  0  0  0
 18 20  1  0  0  0
 20 21  1  0  0  0
 21 23  1  0  0  0
 22 24  1  0  0  0
 22 25  1  0  0  0
 22 26  1  0  0  0
 27 28  1  0  0  0
 28 30  2  0  0  0
 28 31  1  0  0  0
 29 32  2  0  0  0
 29 33  1  0  0  0
 30 34  1  0  0  0
 30 35  1  0  0  0
 31 36  2  0  0  0
 32 37  1  0  0  0
 33 38  2  0  0  0
 34 39  2  0  0  0
 36 39  1  0  0  0
 37 40  2  0  0  0
 38 40  1  0  0  0
M  END
>  <CHROM.0>
42.02818491,61.57108066,-171.33573735

>  <CHROM.1>
-64.29181787,-140.37062054,-171.26828825,145.86533140,-145.98256835,-56.55488865
-97.05611174,-35.54858112,148.65625317,-94.84108601,-45.07122271,126.55310790
-48.80982709,-2.20738834,17.68369560,-0.45398180,-1.05266669,-1.99978608

>  <Name>
64143

>  <PUBCHEM_ATOM_DEF_STEREO_COUNT>
5

>  <PUBCHEM_ATOM_UDEF_STEREO_COUNT>
0

>  <PUBCHEM_BOND_DEF_STEREO_COUNT>
0

>  <PUBCHEM_BOND_UDEF_STEREO_COUNT>
0

>  <PUBCHEM_CACTVS_TAUTO_COUNT>
12

>  <PUBCHEM_COMPONENT_COUNT>
1

>  <PUBCHEM_COMPOUND_CID>
64143

>  <PUBCHEM_CONFORMER_DIVERSEORDER>
1
21
84
153
101
123
82
146
125
17
85
73
20
32
151
113
8
57
53
6
52
117
108
155
94
19
118
148
88
54
130
70
105
150
142
135
56
2
77
61
92
106
139
116
7
51
96
80
93
34
132
115
24
147
122
121
67
36
124
66
145
141
112
44
110
58
104
11
79
149
50
143
60
10
46
100
74
55
129
25
30
131
114
97
47
102
111
140
134
81
16
28
109
144
152
48
86
45
126
39
87
65
29
4
95
156
35
133
27
62
78
49
75
98
99
68
15
63
90
69
107
3
103
64
41
59
76
22
9
136
12
157
33
26
23
119
89
38
71
31
138
154
14
43
127
120
72
128
18
37
42
40
137
83
5
91
13

>  <PUBCHEM_CONFORMER_ID>
0000FA8F00000001

>  <PUBCHEM_CONFORMER_RMSD>
1.4

>  <PUBCHEM_COORDINATE_TYPE>
2
5
10

>  <PUBCHEM_EFFECTIVE_ROTOR_COUNT>
13.6

>  <PUBCHEM_FEATURE_SELFOVERLAP>
66.023

>  <PUBCHEM_HEAVY_ATOM_COUNT>
40

>  <PUBCHEM_ISOTOPIC_ATOM_COUNT>
0

>  <PUBCHEM_MMFF94_ENERGY>
106.283

>  <PUBCHEM_MMFF94_PARTIAL_CHARGES>
42
1 -0.33
12 0.27
15 0.33
18 0.27
19 0.57
2 -0.57
20 0.28
21 0.3
22 0.3
23 0.23
27 0.54
28 0.09
29 0.1
3 -0.68
30 -0.14
31 -0.15
32 -0.15
33 -0.15
34 0.08
35 0.14
36 -0.15
37 -0.15
38 -0.15
39 -0.15
4 -0.57
40 -0.15
5 -0.53
59 0.37
6 -0.81
61 0.4
64 0.37
7 -0.73
74 0.15
75 0.15
76 0.15
8 -0.73
80 0.15
81 0.15
82 0.15
83 0.15
84 0.15
85 0.45

>  <PUBCHEM_PHARMACOPHORE_FEATURES>
13
1 2 acceptor
1 3 acceptor
1 3 donor
1 4 acceptor
1 5 donor
1 6 cation
1 7 donor
1 8 donor
4 22 24 25 26 hydrophobe
6 28 30 31 34 36 39 rings
6 29 32 33 37 38 40 rings
6 6 9 10 11 12 15 rings
6 9 10 13 14 16 17 rings

>  <PUBCHEM_SHAPE_FINGERPRINT>
10032420 55 18130495444200979297
10319688 77 17470141684274524266
10721379 63 18052271596134557976
11421498 54 18270101526886733871
11991303 11 17825385439061262902
13690498 29 17703225234654346413
13911987 19 18189607414530907799
15064981 113 18187641419363593252
15439362 3 18118695322292951744
19319366 153 18342181024936020931
19958102 18 18337956809306142254
20505436 4 17987259766991243505
22393880 68 17989485238265708768
23559900 14 17977103453547379345
340366 18 17766549158792973763
4409770 3 18048885387894744490
504843 32 17969224610910731106
563151 97 18410570691006883420
6058803 2 18127403450458884667
6691757 9 18267867358440949680

>  <PUBCHEM_SHAPE_MULTIPOLES>
788.61
15.86
8.74
2.82
9.48
18.24
1.5
-18.8
9.61
4.55
-3.03
-1.39
0.57
-6.09

>  <PUBCHEM_SHAPE_SELFOVERLAP>
1639.542

>  <PUBCHEM_SHAPE_VOLUME>
450.8

>  <RI>
-8.77616e+08

>  <Rbt.Current_Directory>
/root/miniconda3/envs/rdock/share/rxdock-2013.1.1_148c5bd1-0/data/ligands/prepped_ligands/Nelfinavir

>  <Rbt.Executable>
rbdock/0.1.0

>  <Rbt.Library>
librxdock.so/0.1.0

>  <Rbt.Parameter_File>
/root/miniconda3/envs/rdock/share/rxdock-2013.1.1_148c5bd1-0/data/scripts/dock.prm

>  <Rbt.Receptor>
def.prm

>  <SCORE>
-7.14518

>  <SCORE.INTER>
-8.8521

>  <SCORE.INTER.CONST>
1

>  <SCORE.INTER.POLAR>
-0.286107

>  <SCORE.INTER.REPUL>
0

>  <SCORE.INTER.ROT>
10

>  <SCORE.INTER.VDW>
-23.2793

>  <SCORE.INTER.norm>
-0.221302

>  <SCORE.INTRA>
1.42516

>  <SCORE.INTRA.DIHEDRAL>
8.52056

>  <SCORE.INTRA.DIHEDRAL.0>
15.8713

>  <SCORE.INTRA.POLAR>
-0.133997

>  <SCORE.INTRA.POLAR.0>
0

>  <SCORE.INTRA.REPUL>
0

>  <SCORE.INTRA.REPUL.0>
0

>  <SCORE.INTRA.VDW>
-2.37953

>  <SCORE.INTRA.VDW.0>
-0.89017

>  <SCORE.INTRA.norm>
0.0356291

>  <SCORE.RESTR>
0.726966

>  <SCORE.RESTR.CAVITY>
0.726966

>  <SCORE.RESTR.norm>
0.0181742

>  <SCORE.SYSTEM>
-0.445215

>  <SCORE.SYSTEM.CONST>
0

>  <SCORE.SYSTEM.DIHEDRAL>
0.938819

>  <SCORE.SYSTEM.POLAR>
-0.0168505

>  <SCORE.SYSTEM.VDW>
-0.857333

>  <SCORE.SYSTEM.norm>
-0.0111304

>  <SCORE.heavy>
40

>  <SCORE.norm>
-0.17863

$$$$
64143
  RxDock  02242101303D
librxdock.so/0.1.0
 44 47  0  0  0  0  0  0  0  0999 V2000
  -46.7395   -2.9102   14.6560 S   0  0  0  0  0  0
  -51.9638   -4.6772   19.4388 O   0  0  0  0  0  0
  -46.4229   -4.1786   17.0135 O   0  0  0  0  0  0
  -46.2184    0.7921   18.4588 O   0  0  0  0  0  0
  -41.5048    2.1465   20.4654 O   0  0  0  0  0  0
  -49.5664   -3.8573   17.9136 N   0  0  0  0  0  0
  -52.2747   -2.3865   19.1650 N   0  0  0  0  0  0
  -45.5679   -1.4202   18.2179 N   0  0  0  0  0  0
  -51.2144   -5.9976   16.6245 C   0  0  0  0  0  0
  -49.7199   -6.1846   16.9437 C   0  0  0  0  0  0
  -51.5470   -4.5033   16.4677 C   0  0  0  0  0  0
  -49.2875   -5.2869   18.1182 C   0  0  0  0  0  0
  -52.1259   -6.6992   17.6460 C   0  0  0  0  0  0
  -49.3755   -7.6624   17.1923 C   0  0  0  0  0  0
  -50.9659   -3.5914   17.5589 C   0  0  0  0  0  0
  -51.7645   -8.1730   17.8057 C   0  0  0  0  0  0
  -50.3012   -8.3452   18.1944 C   0  0  0  0  0  0
  -48.6442   -3.2534   16.9515 C   0  0  0  0  0  0
  -51.7756   -3.6315   18.8228 C   0  0  0  0  0  0
  -47.2251   -3.1090   17.5191 C   0  0  0  0  0  0
  -46.5312   -1.7662   17.1938 C   0  0  0  0  0  0
  -53.1045   -2.1594   20.3262 C   0  0  0  0  0  0
  -45.8562   -1.8159   15.8140 C   0  0  0  0  0  0
  -53.7209   -0.7584   20.2424 C   0  0  0  0  0  0
  -54.2157   -3.2138   20.3615 C   0  0  0  0  0  0
  -52.2459   -2.2678   21.5916 C   0  0  0  0  0  0
  -45.4959   -0.1519   18.7681 C   0  0  0  0  0  0
  -44.4355    0.0497   19.7887 C   0  0  0  0  0  0
  -48.1252   -1.8801   14.1910 C   0  0  0  0  0  0
  -43.4548    1.0286   19.6291 C   0  0  0  0  0  0
  -44.4326   -0.7619   20.9232 C   0  0  0  0  0  0
  -47.9390   -0.5137   13.9814 C   0  0  0  0  0  0
  -49.3923   -2.4428   14.0385 C   0  0  0  0  0  0
  -42.4713    1.1960   20.6039 C   0  0  0  0  0  0
  -43.4503    1.9035   18.4158 C   0  0  0  0  0  0
  -43.4490   -0.5945   21.8980 C   0  0  0  0  0  0
  -49.0199    0.2900   13.6191 C   0  0  0  0  0  0
  -50.4732   -1.6389   13.6760 C   0  0  0  0  0  0
  -42.4683    0.3843   21.7383 C   0  0  0  0  0  0
  -50.2870   -0.2727   13.4665 C   0  0  0  0  0  0
  -51.9797   -1.5733   18.6333 H   0  0  0  0  0  0
  -46.7756   -5.0065   17.3821 H   0  0  0  0  0  0
  -44.9432   -2.1471   18.5560 H   0  0  0  0  0  0
  -40.6514    1.7103   20.3001 H   0  0  0  0  0  0
  1 23  1  0  0  0
  1 29  1  0  0  0
  2 19  2  0  0  0
  3 20  1  0  0  0
  3 42  1  0  0  0
  4 27  2  0  0  0
  5 34  1  0  0  0
  5 44  1  0  0  0
  6 12  1  0  0  0
  6 15  1  0  0  0
  6 18  1  0  0  0
  7 19  1  0  0  0
  7 22  1  0  0  0
  7 41  1  0  0  0
  8 21  1  0  0  0
  8 27  1  0  0  0
  8 43  1  0  0  0
  9 10  1  0  0  0
  9 11  1  0  0  0
  9 13  1  0  0  0
 10 12  1  0  0  0
 10 14  1  0  0  0
 11 15  1  0  0  0
 13 16  1  0  0  0
 14 17  1  0  0  0
 15 19  1  0  0  0
 16 17  1  0  0  0
 18 20  1  0  0  0
 20 21  1  0  0  0
 21 23  1  0  0  0
 22 24  1  0  0  0
 22 25  1  0  0  0
 22 26  1  0  0  0
 27 28  1  0  0  0
 28 30  2  0  0  0
 28 31  1  0  0  0
 29 32  2  0  0  0
 29 33  1  0  0  0
 30 34  1  0  0  0
 30 35  1  0  0  0
 31 36  2  0  0  0
 32 37  1  0  0  0
 33 38  2  0  0  0
 34 39  2  0  0  0
 36 39  1  0  0  0
 37 40  2  0  0  0
 38 40  1  0  0  0
M  END
>  <CHROM.0>
39.28132513,176.74819760,-47.35829188

>  <CHROM.1>
77.34581638,39.53085532,-65.83161965,-110.07533844,-71.22085745,-167.94025946
-133.60425172,-68.93662017,100.32040924,-86.10187761,154.59352057,-56.85060139
-48.33833710,-2.49546905,17.81777564,-0.24349282,-0.57112868,-1.72379783

>  <Name>
64143

>  <PUBCHEM_ATOM_DEF_STEREO_COUNT>
5

>  <PUBCHEM_ATOM_UDEF_STEREO_COUNT>
0

>  <PUBCHEM_BOND_DEF_STEREO_COUNT>
0

>  <PUBCHEM_BOND_UDEF_STEREO_COUNT>
0

>  <PUBCHEM_CACTVS_TAUTO_COUNT>
12

>  <PUBCHEM_COMPONENT_COUNT>
1

>  <PUBCHEM_COMPOUND_CID>
64143

>  <PUBCHEM_CONFORMER_DIVERSEORDER>
1
21
84
153
101
123
82
146
125
17
85
73
20
32
151
113
8
57
53
6
52
117
108
155
94
19
118
148
88
54
130
70
105
150
142
135
56
2
77
61
92
106
139
116
7
51
96
80
93
34
132
115
24
147
122
121
67
36
124
66
145
141
112
44
110
58
104
11
79
149
50
143
60
10
46
100
74
55
129
25
30
131
114
97
47
102
111
140
134
81
16
28
109
144
152
48
86
45
126
39
87
65
29
4
95
156
35
133
27
62
78
49
75
98
99
68
15
63
90
69
107
3
103
64
41
59
76
22
9
136
12
157
33
26
23
119
89
38
71
31
138
154
14
43
127
120
72
128
18
37
42
40
137
83
5
91
13

>  <PUBCHEM_CONFORMER_ID>
0000FA8F00000001

>  <PUBCHEM_CONFORMER_RMSD>
1.4

>  <PUBCHEM_COORDINATE_TYPE>
2
5
10

>  <PUBCHEM_EFFECTIVE_ROTOR_COUNT>
13.6

>  <PUBCHEM_FEATURE_SELFOVERLAP>
66.023

>  <PUBCHEM_HEAVY_ATOM_COUNT>
40

>  <PUBCHEM_ISOTOPIC_ATOM_COUNT>
0

>  <PUBCHEM_MMFF94_ENERGY>
106.283

>  <PUBCHEM_MMFF94_PARTIAL_CHARGES>
42
1 -0.33
12 0.27
15 0.33
18 0.27
19 0.57
2 -0.57
20 0.28
21 0.3
22 0.3
23 0.23
27 0.54
28 0.09
29 0.1
3 -0.68
30 -0.14
31 -0.15
32 -0.15
33 -0.15
34 0.08
35 0.14
36 -0.15
37 -0.15
38 -0.15
39 -0.15
4 -0.57
40 -0.15
5 -0.53
59 0.37
6 -0.81
61 0.4
64 0.37
7 -0.73
74 0.15
75 0.15
76 0.15
8 -0.73
80 0.15
81 0.15
82 0.15
83 0.15
84 0.15
85 0.45

>  <PUBCHEM_PHARMACOPHORE_FEATURES>
13
1 2 acceptor
1 3 acceptor
1 3 donor
1 4 acceptor
1 5 donor
1 6 cation
1 7 donor
1 8 donor
4 22 24 25 26 hydrophobe
6 28 30 31 34 36 39 rings
6 29 32 33 37 38 40 rings
6 6 9 10 11 12 15 rings
6 9 10 13 14 16 17 rings

>  <PUBCHEM_SHAPE_FINGERPRINT>
10032420 55 18130495444200979297
10319688 77 17470141684274524266
10721379 63 18052271596134557976
11421498 54 18270101526886733871
11991303 11 17825385439061262902
13690498 29 17703225234654346413
13911987 19 18189607414530907799
15064981 113 18187641419363593252
15439362 3 18118695322292951744
19319366 153 18342181024936020931
19958102 18 18337956809306142254
20505436 4 17987259766991243505
22393880 68 17989485238265708768
23559900 14 17977103453547379345
340366 18 17766549158792973763
4409770 3 18048885387894744490
504843 32 17969224610910731106
563151 97 18410570691006883420
6058803 2 18127403450458884667
6691757 9 18267867358440949680

>  <PUBCHEM_SHAPE_MULTIPOLES>
788.61
15.86
8.74
2.82
9.48
18.24
1.5
-18.8
9.61
4.55
-3.03
-1.39
0.57
-6.09

>  <PUBCHEM_SHAPE_SELFOVERLAP>
1639.542

>  <PUBCHEM_SHAPE_VOLUME>
450.8

>  <RI>
-8.77616e+08

>  <Rbt.Current_Directory>
/root/miniconda3/envs/rdock/share/rxdock-2013.1.1_148c5bd1-0/data/ligands/prepped_ligands/Nelfinavir

>  <Rbt.Executable>
rbdock/0.1.0

>  <Rbt.Library>
librxdock.so/0.1.0

>  <Rbt.Parameter_File>
/root/miniconda3/envs/rdock/share/rxdock-2013.1.1_148c5bd1-0/data/scripts/dock.prm

>  <Rbt.Receptor>
def.prm

>  <SCORE>
2.07277

>  <SCORE.INTER>
-9.26761

>  <SCORE.INTER.CONST>
1

>  <SCORE.INTER.POLAR>
0

>  <SCORE.INTER.REPUL>
0

>  <SCORE.INTER.ROT>
10

>  <SCORE.INTER.VDW>
-24.6676

>  <SCORE.INTER.norm>
-0.23169

>  <SCORE.INTRA>
9.68239

>  <SCORE.INTRA.DIHEDRAL>
13.4305

>  <SCORE.INTRA.DIHEDRAL.0>
15.8713

>  <SCORE.INTRA.POLAR>
0

>  <SCORE.INTRA.POLAR.0>
0

>  <SCORE.INTRA.REPUL>
0

>  <SCORE.INTRA.REPUL.0>
0

>  <SCORE.INTRA.VDW>
2.96713

>  <SCORE.INTRA.VDW.0>
-0.89017

>  <SCORE.INTRA.norm>
0.24206

>  <SCORE.RESTR>
1.84188

>  <SCORE.RESTR.CAVITY>
1.84188

>  <SCORE.RESTR.norm>
0.046047

>  <SCORE.SYSTEM>
-0.183892

>  <SCORE.SYSTEM.CONST>
0

>  <SCORE.SYSTEM.DIHEDRAL>
1.39451

>  <SCORE.SYSTEM.POLAR>
-0.0193789

>  <SCORE.SYSTEM.VDW>
-0.815259

>  <SCORE.SYSTEM.norm>
-0.00459731

>  <SCORE.heavy>
40

>  <SCORE.norm>
0.0518192

$$$$
64143
  RxDock  02242101303D
librxdock.so/0.1.0
 44 47  0  0  0  0  0  0  0  0999 V2000
  -48.8212   -0.3776   13.5190 S   0  0  0  0  0  0
  -53.4655   -6.2106   17.5246 O   0  0  0  0  0  0
  -51.8503   -1.2519   17.6696 O   0  0  0  0  0  0
  -50.0814    1.3623   17.4940 O   0  0  0  0  0  0
  -46.5322    1.8586   21.2570 O   0  0  0  0  0  0
  -51.5304   -4.2321   17.3491 N   0  0  0  0  0  0
  -53.5737   -6.1179   15.2012 N   0  0  0  0  0  0
  -49.2376   -0.5604   16.5109 N   0  0  0  0  0  0
  -50.1170   -6.8441   17.7214 C   0  0  0  0  0  0
  -49.9854   -5.6828   18.7237 C   0  0  0  0  0  0
  -50.4968   -6.3108   16.3287 C   0  0  0  0  0  0
  -51.2272   -4.7724   18.6830 C   0  0  0  0  0  0
  -51.0780   -7.9397   18.2140 C   0  0  0  0  0  0
  -49.6923   -6.1926   20.1444 C   0  0  0  0  0  0
  -51.6289   -5.2726   16.3181 C   0  0  0  0  0  0
  -50.6999   -8.4375   19.6060 C   0  0  0  0  0  0
  -50.6446   -7.2907   20.6079 C   0  0  0  0  0  0
  -50.5927   -3.1781   16.9609 C   0  0  0  0  0  0
  -52.9839   -5.9089   16.4359 C   0  0  0  0  0  0
  -51.3111   -1.8973   16.5137 C   0  0  0  0  0  0
  -50.4227   -0.8905   15.7473 C   0  0  0  0  0  0
  -54.8695   -6.7366   15.0387 C   0  0  0  0  0  0
  -50.0371   -1.4388   14.3643 C   0  0  0  0  0  0
  -55.9323   -5.8765   15.7319 C   0  0  0  0  0  0
  -55.1871   -6.8487   13.5439 C   0  0  0  0  0  0
  -54.8471   -8.1332   15.6706 C   0  0  0  0  0  0
  -49.1712    0.5541   17.3293 C   0  0  0  0  0  0
  -47.8760    0.7680   18.0246 C   0  0  0  0  0  0
  -47.2851   -1.0185   14.1727 C   0  0  0  0  0  0
  -47.8289    1.2230   19.3423 C   0  0  0  0  0  0
  -46.6924    0.5046   17.3351 C   0  0  0  0  0  0
  -47.1692   -2.3745   14.4784 C   0  0  0  0  0  0
  -46.2032   -0.1624   14.3774 C   0  0  0  0  0  0
  -46.5984    1.4144   19.9706 C   0  0  0  0  0  0
  -49.0932    1.5078   20.0894 C   0  0  0  0  0  0
  -45.4618    0.6961   17.9634 C   0  0  0  0  0  0
  -45.9712   -2.8745   14.9887 C   0  0  0  0  0  0
  -45.0051   -0.6625   14.8877 C   0  0  0  0  0  0
  -45.4147    1.1512   19.2810 C   0  0  0  0  0  0
  -44.8891   -2.0184   15.1934 C   0  0  0  0  0  0
  -53.1247   -5.7450   14.3702 H   0  0  0  0  0  0
  -51.1092   -1.0643   18.2706 H   0  0  0  0  0  0
  -48.4403   -1.1883   16.4570 H   0  0  0  0  0  0
  -45.6006    2.0045   21.4954 H   0  0  0  0  0  0
  1 23  1  0  0  0
  1 29  1  0  0  0
  2 19  2  0  0  0
  3 20  1  0  0  0
  3 42  1  0  0  0
  4 27  2  0  0  0
  5 34  1  0  0  0
  5 44  1  0  0  0
  6 12  1  0  0  0
  6 15  1  0  0  0
  6 18  1  0  0  0
  7 19  1  0  0  0
  7 22  1  0  0  0
  7 41  1  0  0  0
  8 21  1  0  0  0
  8 27  1  0  0  0
  8 43  1  0  0  0
  9 10  1  0  0  0
  9 11  1  0  0  0
  9 13  1  0  0  0
 10 12  1  0  0  0
 10 14  1  0  0  0
 11 15  1  0  0  0
 13 16  1  0  0  0
 14 17  1  0  0  0
 15 19  1  0  0  0
 16 17  1  0  0  0
 18 20  1  0  0  0
 20 21  1  0  0  0
 21 23  1  0  0  0
 22 24  1  0  0  0
 22 25  1  0  0  0
 22 26  1  0  0  0
 27 28  1  0  0  0
 28 30  2  0  0  0
 28 31  1  0  0  0
 29 32  2  0  0  0
 29 33  1  0  0  0
 30 34  1  0  0  0
 30 35  1  0  0  0
 31 36  2  0  0  0
 32 37  1  0  0  0
 33 38  2  0  0  0
 34 39  2  0  0  0
 36 39  1  0  0  0
 37 40  2  0  0  0
 38 40  1  0  0  0
M  END
>  <CHROM.0>
72.62966656,177.27966730,-142.01362583

>  <CHROM.1>
86.27063348,33.30502424,58.64157921,-175.09843692,-127.76513243,61.78616751
-94.92472227,-43.83796173,73.36682613,67.63174016,-49.21923966,40.21842488
-49.84773192,-2.86755354,16.92585904,0.19925745,-0.85844695,-1.20995154

>  <Name>
64143

>  <PUBCHEM_ATOM_DEF_STEREO_COUNT>
5

>  <PUBCHEM_ATOM_UDEF_STEREO_COUNT>
0

>  <PUBCHEM_BOND_DEF_STEREO_COUNT>
0

>  <PUBCHEM_BOND_UDEF_STEREO_COUNT>
0

>  <PUBCHEM_CACTVS_TAUTO_COUNT>
12

>  <PUBCHEM_COMPONENT_COUNT>
1

>  <PUBCHEM_COMPOUND_CID>
64143

>  <PUBCHEM_CONFORMER_DIVERSEORDER>
1
21
84
153
101
123
82
146
125
17
85
73
20
32
151
113
8
57
53
6
52
117
108
155
94
19
118
148
88
54
130
70
105
150
142
135
56
2
77
61
92
106
139
116
7
51
96
80
93
34
132
115
24
147
122
121
67
36
124
66
145
141
112
44
110
58
104
11
79
149
50
143
60
10
46
100
74
55
129
25
30
131
114
97
47
102
111
140
134
81
16
28
109
144
152
48
86
45
126
39
87
65
29
4
95
156
35
133
27
62
78
49
75
98
99
68
15
63
90
69
107
3
103
64
41
59
76
22
9
136
12
157
33
26
23
119
89
38
71
31
138
154
14
43
127
120
72
128
18
37
42
40
137
83
5
91
13

>  <PUBCHEM_CONFORMER_ID>
0000FA8F00000001

>  <PUBCHEM_CONFORMER_RMSD>
1.4

>  <PUBCHEM_COORDINATE_TYPE>
2
5
10

>  <PUBCHEM_EFFECTIVE_ROTOR_COUNT>
13.6

>  <PUBCHEM_FEATURE_SELFOVERLAP>
66.023

>  <PUBCHEM_HEAVY_ATOM_COUNT>
40

>  <PUBCHEM_ISOTOPIC_ATOM_COUNT>
0

>  <PUBCHEM_MMFF94_ENERGY>
106.283

>  <PUBCHEM_MMFF94_PARTIAL_CHARGES>
42
1 -0.33
12 0.27
15 0.33
18 0.27
19 0.57
2 -0.57
20 0.28
21 0.3
22 0.3
23 0.23
27 0.54
28 0.09
29 0.1
3 -0.68
30 -0.14
31 -0.15
32 -0.15
33 -0.15
34 0.08
35 0.14
36 -0.15
37 -0.15
38 -0.15
39 -0.15
4 -0.57
40 -0.15
5 -0.53
59 0.37
6 -0.81
61 0.4
64 0.37
7 -0.73
74 0.15
75 0.15
76 0.15
8 -0.73
80 0.15
81 0.15
82 0.15
83 0.15
84 0.15
85 0.45

>  <PUBCHEM_PHARMACOPHORE_FEATURES>
13
1 2 acceptor
1 3 acceptor
1 3 donor
1 4 acceptor
1 5 donor
1 6 cation
1 7 donor
1 8 donor
4 22 24 25 26 hydrophobe
6 28 30 31 34 36 39 rings
6 29 32 33 37 38 40 rings
6 6 9 10 11 12 15 rings
6 9 10 13 14 16 17 rings

>  <PUBCHEM_SHAPE_FINGERPRINT>
10032420 55 18130495444200979297
10319688 77 17470141684274524266
10721379 63 18052271596134557976
11421498 54 18270101526886733871
11991303 11 17825385439061262902
13690498 29 17703225234654346413
13911987 19 18189607414530907799
15064981 113 18187641419363593252
15439362 3 18118695322292951744
19319366 153 18342181024936020931
19958102 18 18337956809306142254
20505436 4 17987259766991243505
22393880 68 17989485238265708768
23559900 14 17977103453547379345
340366 18 17766549158792973763
4409770 3 18048885387894744490
504843 32 17969224610910731106
563151 97 18410570691006883420
6058803 2 18127403450458884667
6691757 9 18267867358440949680

>  <PUBCHEM_SHAPE_MULTIPOLES>
788.61
15.86
8.74
2.82
9.48
18.24
1.5
-18.8
9.61
4.55
-3.03
-1.39
0.57
-6.09

>  <PUBCHEM_SHAPE_SELFOVERLAP>
1639.542

>  <PUBCHEM_SHAPE_VOLUME>
450.8

>  <RI>
-8.77616e+08

>  <Rbt.Current_Directory>
/root/miniconda3/envs/rdock/share/rxdock-2013.1.1_148c5bd1-0/data/ligands/prepped_ligands/Nelfinavir

>  <Rbt.Executable>
rbdock/0.1.0

>  <Rbt.Library>
librxdock.so/0.1.0

>  <Rbt.Parameter_File>
/root/miniconda3/envs/rdock/share/rxdock-2013.1.1_148c5bd1-0/data/scripts/dock.prm

>  <Rbt.Receptor>
def.prm

>  <SCORE>
-17.3505

>  <SCORE.INTER>
-16.4646

>  <SCORE.INTER.CONST>
1

>  <SCORE.INTER.POLAR>
-0.665041

>  <SCORE.INTER.REPUL>
0.00262446

>  <SCORE.INTER.ROT>
10

>  <SCORE.INTER.VDW>
-29.6166

>  <SCORE.INTER.norm>
-0.411615

>  <SCORE.INTRA>
-1.80454

>  <SCORE.INTRA.DIHEDRAL>
0.102755

>  <SCORE.INTRA.DIHEDRAL.0>
15.8713

>  <SCORE.INTRA.POLAR>
0

>  <SCORE.INTRA.POLAR.0>
0

>  <SCORE.INTRA.REPUL>
0

>  <SCORE.INTRA.REPUL.0>
0

>  <SCORE.INTRA.VDW>
-1.85592

>  <SCORE.INTRA.VDW.0>
-0.89017

>  <SCORE.INTRA.norm>
-0.0451135

>  <SCORE.RESTR>
9.10363e-05

>  <SCORE.RESTR.CAVITY>
9.10363e-05

>  <SCORE.RESTR.norm>
2.27591e-06

>  <SCORE.SYSTEM>
0.918544

>  <SCORE.SYSTEM.CONST>
0

>  <SCORE.SYSTEM.DIHEDRAL>
2.92397

>  <SCORE.SYSTEM.POLAR>
-0.00437746

>  <SCORE.SYSTEM.VDW>
-0.528556

>  <SCORE.SYSTEM.norm>
0.0229636

>  <SCORE.heavy>
40

>  <SCORE.norm>
-0.433762

$$$$
64143
  RxDock  02242101303D
librxdock.so/0.1.0
 44 47  0  0  0  0  0  0  0  0999 V2000
  -47.1622   -2.7940   14.7770 S   0  0  0  0  0  0
  -49.9158   -5.8556   16.1690 O   0  0  0  0  0  0
  -49.9798   -0.6354   17.1301 O   0  0  0  0  0  0
  -51.1999   -0.2552   13.2138 O   0  0  0  0  0  0
  -49.7080    4.0901   10.8931 O   0  0  0  0  0  0
  -51.3686   -3.6875   16.4688 N   0  0  0  0  0  0
  -49.9853   -6.4348   18.4225 N   0  0  0  0  0  0
  -49.2206   -0.8947   14.2378 N   0  0  0  0  0  0
  -53.5770   -5.5372   17.2814 C   0  0  0  0  0  0
  -53.7037   -4.5725   16.0882 C   0  0  0  0  0  0
  -52.5373   -5.0128   18.2876 C   0  0  0  0  0  0
  -52.3216   -4.2407   15.4947 C   0  0  0  0  0  0
  -53.2920   -6.9832   16.8406 C   0  0  0  0  0  0
  -54.6718   -5.1143   15.0235 C   0  0  0  0  0  0
  -51.2202   -4.5255   17.6650 C   0  0  0  0  0  0
  -54.3184   -7.4760   15.8248 C   0  0  0  0  0  0
  -54.3838   -6.5549   14.6125 C   0  0  0  0  0  0
  -51.6874   -2.3031   16.8188 C   0  0  0  0  0  0
  -50.3014   -5.6615   17.3188 C   0  0  0  0  0  0
  -50.7534   -1.2994   16.1281 C   0  0  0  0  0  0
  -49.7950   -1.9188   15.0849 C   0  0  0  0  0  0
  -49.1358   -7.6018   18.3530 C   0  0  0  0  0  0
  -48.6876   -2.7341   15.7711 C   0  0  0  0  0  0
  -47.7480   -7.1892   17.8496 C   0  0  0  0  0  0
  -49.0184   -8.2197   19.7503 C   0  0  0  0  0  0
  -49.7512   -8.6196   17.3857 C   0  0  0  0  0  0
  -49.9861   -0.1420   13.3638 C   0  0  0  0  0  0
  -49.2429    0.8500   12.5450 C   0  0  0  0  0  0
  -46.0867   -1.7243   15.7240 C   0  0  0  0  0  0
  -49.8521    2.0240   12.1022 C   0  0  0  0  0  0
  -47.9114    0.5900   12.2205 C   0  0  0  0  0  0
  -44.7390   -2.0495   15.8776 C   0  0  0  0  0  0
  -46.5956   -0.5651   16.3094 C   0  0  0  0  0  0
  -49.1299    2.9381   11.3351 C   0  0  0  0  0  0
  -51.2795    2.3110   12.4455 C   0  0  0  0  0  0
  -47.1892    1.5042   11.4533 C   0  0  0  0  0  0
  -43.9002   -1.2154   16.6166 C   0  0  0  0  0  0
  -45.7566    0.2690   17.0484 C   0  0  0  0  0  0
  -47.7985    2.6781   11.0105 C   0  0  0  0  0  0
  -44.4090   -0.0562   17.2021 C   0  0  0  0  0  0
  -50.2866   -6.1283   19.3425 H   0  0  0  0  0  0
  -50.5812   -0.0513   17.6228 H   0  0  0  0  0  0
  -48.2236   -0.7122   14.3123 H   0  0  0  0  0  0
  -49.2436    4.8495   11.2851 H   0  0  0  0  0  0
  1 23  1  0  0  0
  1 29  1  0  0  0
  2 19  2  0  0  0
  3 20  1  0  0  0
  3 42  1  0  0  0
  4 27  2  0  0  0
  5 34  1  0  0  0
  5 44  1  0  0  0
  6 12  1  0  0  0
  6 15  1  0  0  0
  6 18  1  0  0  0
  7 19  1  0  0  0
  7 22  1  0  0  0
  7 41  1  0  0  0
  8 21  1  0  0  0
  8 27  1  0  0  0
  8 43  1  0  0  0
  9 10  1  0  0  0
  9 11  1  0  0  0
  9 13  1  0  0  0
 10 12  1  0  0  0
 10 14  1  0  0  0
 11 15  1  0  0  0
 13 16  1  0  0  0
 14 17  1  0  0  0
 15 19  1  0  0  0
 16 17  1  0  0  0
 18 20  1  0  0  0
 20 21  1  0  0  0
 21 23  1  0  0  0
 22 24  1  0  0  0
 22 25  1  0  0  0
 22 26  1  0  0  0
 27 28  1  0  0  0
 28 30  2  0  0  0
 28 31  1  0  0  0
 29 32  2  0  0  0
 29 33  1  0  0  0
 30 34  1  0  0  0
 30 35  1  0  0  0
 31 36  2  0  0  0
 32 37  1  0  0  0
 33 38  2  0  0  0
 34 39  2  0  0  0
 36 39  1  0  0  0
 37 40  2  0  0  0
 38 40  1  0  0  0
M  END
>  <CHROM.0>
61.82526286,178.39548735,-67.04566551

>  <CHROM.1>
107.88333336,140.89075236,-70.18175432,117.10030517,-103.53215055,60.72939168
-65.63754231,-7.31907862,-114.86850664,-73.64464513,-28.74992965,29.98082590
-49.70441002,-2.66160169,15.45601505,-1.21091288,0.28114867,2.54170302

>  <Name>
64143

>  <PUBCHEM_ATOM_DEF_STEREO_COUNT>
5

>  <PUBCHEM_ATOM_UDEF_STEREO_COUNT>
0

>  <PUBCHEM_BOND_DEF_STEREO_COUNT>
0

>  <PUBCHEM_BOND_UDEF_STEREO_COUNT>
0

>  <PUBCHEM_CACTVS_TAUTO_COUNT>
12

>  <PUBCHEM_COMPONENT_COUNT>
1

>  <PUBCHEM_COMPOUND_CID>
64143

>  <PUBCHEM_CONFORMER_DIVERSEORDER>
1
21
84
153
101
123
82
146
125
17
85
73
20
32
151
113
8
57
53
6
52
117
108
155
94
19
118
148
88
54
130
70
105
150
142
135
56
2
77
61
92
106
139
116
7
51
96
80
93
34
132
115
24
147
122
121
67
36
124
66
145
141
112
44
110
58
104
11
79
149
50
143
60
10
46
100
74
55
129
25
30
131
114
97
47
102
111
140
134
81
16
28
109
144
152
48
86
45
126
39
87
65
29
4
95
156
35
133
27
62
78
49
75
98
99
68
15
63
90
69
107
3
103
64
41
59
76
22
9
136
12
157
33
26
23
119
89
38
71
31
138
154
14
43
127
120
72
128
18
37
42
40
137
83
5
91
13

>  <PUBCHEM_CONFORMER_ID>
0000FA8F00000001

>  <PUBCHEM_CONFORMER_RMSD>
1.4

>  <PUBCHEM_COORDINATE_TYPE>
2
5
10

>  <PUBCHEM_EFFECTIVE_ROTOR_COUNT>
13.6

>  <PUBCHEM_FEATURE_SELFOVERLAP>
66.023

>  <PUBCHEM_HEAVY_ATOM_COUNT>
40

>  <PUBCHEM_ISOTOPIC_ATOM_COUNT>
0

>  <PUBCHEM_MMFF94_ENERGY>
106.283

>  <PUBCHEM_MMFF94_PARTIAL_CHARGES>
42
1 -0.33
12 0.27
15 0.33
18 0.27
19 0.57
2 -0.57
20 0.28
21 0.3
22 0.3
23 0.23
27 0.54
28 0.09
29 0.1
3 -0.68
30 -0.14
31 -0.15
32 -0.15
33 -0.15
34 0.08
35 0.14
36 -0.15
37 -0.15
38 -0.15
39 -0.15
4 -0.57
40 -0.15
5 -0.53
59 0.37
6 -0.81
61 0.4
64 0.37
7 -0.73
74 0.15
75 0.15
76 0.15
8 -0.73
80 0.15
81 0.15
82 0.15
83 0.15
84 0.15
85 0.45

>  <PUBCHEM_PHARMACOPHORE_FEATURES>
13
1 2 acceptor
1 3 acceptor
1 3 donor
1 4 acceptor
1 5 donor
1 6 cation
1 7 donor
1 8 donor
4 22 24 25 26 hydrophobe
6 28 30 31 34 36 39 rings
6 29 32 33 37 38 40 rings
6 6 9 10 11 12 15 rings
6 9 10 13 14 16 17 rings

>  <PUBCHEM_SHAPE_FINGERPRINT>
10032420 55 18130495444200979297
10319688 77 17470141684274524266
10721379 63 18052271596134557976
11421498 54 18270101526886733871
11991303 11 17825385439061262902
13690498 29 17703225234654346413
13911987 19 18189607414530907799
15064981 113 18187641419363593252
15439362 3 18118695322292951744
19319366 153 18342181024936020931
19958102 18 18337956809306142254
20505436 4 17987259766991243505
22393880 68 17989485238265708768
23559900 14 17977103453547379345
340366 18 17766549158792973763
4409770 3 18048885387894744490
504843 32 17969224610910731106
563151 97 18410570691006883420
6058803 2 18127403450458884667
6691757 9 18267867358440949680

>  <PUBCHEM_SHAPE_MULTIPOLES>
788.61
15.86
8.74
2.82
9.48
18.24
1.5
-18.8
9.61
4.55
-3.03
-1.39
0.57
-6.09

>  <PUBCHEM_SHAPE_SELFOVERLAP>
1639.542

>  <PUBCHEM_SHAPE_VOLUME>
450.8

>  <RI>
-8.77616e+08

>  <Rbt.Current_Directory>
/root/miniconda3/envs/rdock/share/rxdock-2013.1.1_148c5bd1-0/data/ligands/prepped_ligands/Nelfinavir

>  <Rbt.Executable>
rbdock/0.1.0

>  <Rbt.Library>
librxdock.so/0.1.0

>  <Rbt.Parameter_File>
/root/miniconda3/envs/rdock/share/rxdock-2013.1.1_148c5bd1-0/data/scripts/dock.prm

>  <Rbt.Receptor>
def.prm

>  <SCORE>
-4.84123

>  <SCORE.INTER>
-10.6243

>  <SCORE.INTER.CONST>
1

>  <SCORE.INTER.POLAR>
0

>  <SCORE.INTER.REPUL>
0

>  <SCORE.INTER.ROT>
10

>  <SCORE.INTER.VDW>
-26.0243

>  <SCORE.INTER.norm>
-0.265606

>  <SCORE.INTRA>
6.55894

>  <SCORE.INTRA.DIHEDRAL>
9.72883

>  <SCORE.INTRA.DIHEDRAL.0>
15.8713

>  <SCORE.INTRA.POLAR>
0

>  <SCORE.INTRA.POLAR.0>
0

>  <SCORE.INTRA.REPUL>
0

>  <SCORE.INTRA.REPUL.0>
0

>  <SCORE.INTRA.VDW>
1.69453

>  <SCORE.INTRA.VDW.0>
-0.89017

>  <SCORE.INTRA.norm>
0.163974

>  <SCORE.RESTR>
0.2474

>  <SCORE.RESTR.CAVITY>
0.2474

>  <SCORE.RESTR.norm>
0.006185

>  <SCORE.SYSTEM>
-1.02333

>  <SCORE.SYSTEM.CONST>
0

>  <SCORE.SYSTEM.DIHEDRAL>
0.146476

>  <SCORE.SYSTEM.VDW>
-1.09656

>  <SCORE.SYSTEM.norm>
-0.0255831

>  <SCORE.heavy>
40

>  <SCORE.norm>
-0.121031

$$$$
64143
  RxDock  02242101303D
librxdock.so/0.1.0
 44 47  0  0  0  0  0  0  0  0999 V2000
  -53.8021   -4.6846   17.0139 S   0  0  0  0  0  0
  -47.8765    0.6041   12.6121 O   0  0  0  0  0  0
  -51.1777   -1.7678   16.0117 O   0  0  0  0  0  0
  -51.3201   -3.1973   18.0626 O   0  0  0  0  0  0
  -47.2805   -7.2015   19.1893 O   0  0  0  0  0  0
  -49.8153   -1.4198   13.2330 N   0  0  0  0  0  0
  -49.7945    1.9187   12.5031 N   0  0  0  0  0  0
  -51.0869   -4.8176   16.4207 N   0  0  0  0  0  0
  -48.0370   -0.8173   15.5640 C   0  0  0  0  0  0
  -48.1446   -2.2244   14.9483 C   0  0  0  0  0  0
  -49.3140   -0.0073   15.2785 C   0  0  0  0  0  0
  -48.5607   -2.1508   13.4671 C   0  0  0  0  0  0
  -46.7612   -0.0791   15.1236 C   0  0  0  0  0  0
  -46.8476   -3.0271   15.1422 C   0  0  0  0  0  0
  -49.8165   -0.0780   13.8286 C   0  0  0  0  0  0
  -45.5087   -0.9082   15.3918 C   0  0  0  0  0  0
  -45.5924   -2.2717   14.7165 C   0  0  0  0  0  0
  -50.9844   -2.1941   13.6506 C   0  0  0  0  0  0
  -49.0449    0.8305   12.9154 C   0  0  0  0  0  0
  -50.8223   -2.7754   15.0622 C   0  0  0  0  0  0
  -51.6616   -4.0436   15.3405 C   0  0  0  0  0  0
  -49.2760    2.9537   11.6380 C   0  0  0  0  0  0
  -53.1209   -3.6791   15.6560 C   0  0  0  0  0  0
  -48.4498    2.3111   10.5179 C   0  0  0  0  0  0
  -50.4475    3.7360   11.0351 C   0  0  0  0  0  0
  -48.3867    3.8984   12.4546 C   0  0  0  0  0  0
  -50.9653   -4.3179   17.7061 C   0  0  0  0  0  0
  -50.3301   -5.2269   18.6945 C   0  0  0  0  0  0
  -54.4890   -6.0679   16.1126 C   0  0  0  0  0  0
  -49.0766   -5.7909   18.4573 C   0  0  0  0  0  0
  -51.0108   -5.5128   19.8780 C   0  0  0  0  0  0
  -55.6782   -5.9146   15.3999 C   0  0  0  0  0  0
  -53.8359   -7.3003   16.1227 C   0  0  0  0  0  0
  -48.5038   -6.6407   19.4034 C   0  0  0  0  0  0
  -48.3394   -5.4896   17.1910 C   0  0  0  0  0  0
  -50.4379   -6.3628   20.8242 C   0  0  0  0  0  0
  -56.2143   -6.9936   14.6972 C   0  0  0  0  0  0
  -54.3721   -8.3794   15.4198 C   0  0  0  0  0  0
  -49.1846   -6.9268   20.5869 C   0  0  0  0  0  0
  -55.5612   -8.2261   14.7073 C   0  0  0  0  0  0
  -50.7808    1.9575   12.7415 H   0  0  0  0  0  0
  -50.9930   -2.1242   16.8974 H   0  0  0  0  0  0
  -50.7878   -5.7689   16.2247 H   0  0  0  0  0  0
  -47.0688   -7.7949   19.9302 H   0  0  0  0  0  0
  1 23  1  0  0  0
  1 29  1  0  0  0
  2 19  2  0  0  0
  3 20  1  0  0  0
  3 42  1  0  0  0
  4 27  2  0  0  0
  5 34  1  0  0  0
  5 44  1  0  0  0
  6 12  1  0  0  0
  6 15  1  0  0  0
  6 18  1  0  0  0
  7 19  1  0  0  0
  7 22  1  0  0  0
  7 41  1  0  0  0
  8 21  1  0  0  0
  8 27  1  0  0  0
  8 43  1  0  0  0
  9 10  1  0  0  0
  9 11  1  0  0  0
  9 13  1  0  0  0
 10 12  1  0  0  0
 10 14  1  0  0  0
 11 15  1  0  0  0
 13 16  1  0  0  0
 14 17  1  0  0  0
 15 19  1  0  0  0
 16 17  1  0  0  0
 18 20  1  0  0  0
 20 21  1  0  0  0
 21 23  1  0  0  0
 22 24  1  0  0  0
 22 25  1  0  0  0
 22 26  1  0  0  0
 27 28  1  0  0  0
 28 30  2  0  0  0
 28 31  1  0  0  0
 29 32  2  0  0  0
 29 33  1  0  0  0
 30 34  1  0  0  0
 30 35  1  0  0  0
 31 36  2  0  0  0
 32 37  1  0  0  0
 33 38  2  0  0  0
 34 39  2  0  0  0
 36 39  1  0  0  0
 37 40  2  0  0  0
 38 40  1  0  0  0
M  END
>  <CHROM.0>
-79.68316896,-48.78200875,-73.49980685

>  <CHROM.1>
-90.26752043,-74.98132045,-174.96553691,-177.06996124,48.78450332,42.27451245
62.24009115,-57.81737557,83.13300449,-81.16860812,-15.72107974,-124.68042575
-50.32419045,-2.97327645,15.55599131,1.98976236,0.36394730,2.43707161

>  <Name>
64143

>  <PUBCHEM_ATOM_DEF_STEREO_COUNT>
5

>  <PUBCHEM_ATOM_UDEF_STEREO_COUNT>
0

>  <PUBCHEM_BOND_DEF_STEREO_COUNT>
0

>  <PUBCHEM_BOND_UDEF_STEREO_COUNT>
0

>  <PUBCHEM_CACTVS_TAUTO_COUNT>
12

>  <PUBCHEM_COMPONENT_COUNT>
1

>  <PUBCHEM_COMPOUND_CID>
64143

>  <PUBCHEM_CONFORMER_DIVERSEORDER>
1
21
84
153
101
123
82
146
125
17
85
73
20
32
151
113
8
57
53
6
52
117
108
155
94
19
118
148
88
54
130
70
105
150
142
135
56
2
77
61
92
106
139
116
7
51
96
80
93
34
132
115
24
147
122
121
67
36
124
66
145
141
112
44
110
58
104
11
79
149
50
143
60
10
46
100
74
55
129
25
30
131
114
97
47
102
111
140
134
81
16
28
109
144
152
48
86
45
126
39
87
65
29
4
95
156
35
133
27
62
78
49
75
98
99
68
15
63
90
69
107
3
103
64
41
59
76
22
9
136
12
157
33
26
23
119
89
38
71
31
138
154
14
43
127
120
72
128
18
37
42
40
137
83
5
91
13

>  <PUBCHEM_CONFORMER_ID>
0000FA8F00000001

>  <PUBCHEM_CONFORMER_RMSD>
1.4

>  <PUBCHEM_COORDINATE_TYPE>
2
5
10

>  <PUBCHEM_EFFECTIVE_ROTOR_COUNT>
13.6

>  <PUBCHEM_FEATURE_SELFOVERLAP>
66.023

>  <PUBCHEM_HEAVY_ATOM_COUNT>
40

>  <PUBCHEM_ISOTOPIC_ATOM_COUNT>
0

>  <PUBCHEM_MMFF94_ENERGY>
106.283

>  <PUBCHEM_MMFF94_PARTIAL_CHARGES>
42
1 -0.33
12 0.27
15 0.33
18 0.27
19 0.57
2 -0.57
20 0.28
21 0.3
22 0.3
23 0.23
27 0.54
28 0.09
29 0.1
3 -0.68
30 -0.14
31 -0.15
32 -0.15
33 -0.15
34 0.08
35 0.14
36 -0.15
37 -0.15
38 -0.15
39 -0.15
4 -0.57
40 -0.15
5 -0.53
59 0.37
6 -0.81
61 0.4
64 0.37
7 -0.73
74 0.15
75 0.15
76 0.15
8 -0.73
80 0.15
81 0.15
82 0.15
83 0.15
84 0.15
85 0.45

>  <PUBCHEM_PHARMACOPHORE_FEATURES>
13
1 2 acceptor
1 3 acceptor
1 3 donor
1 4 acceptor
1 5 donor
1 6 cation
1 7 donor
1 8 donor
4 22 24 25 26 hydrophobe
6 28 30 31 34 36 39 rings
6 29 32 33 37 38 40 rings
6 6 9 10 11 12 15 rings
6 9 10 13 14 16 17 rings

>  <PUBCHEM_SHAPE_FINGERPRINT>
10032420 55 18130495444200979297
10319688 77 17470141684274524266
10721379 63 18052271596134557976
11421498 54 18270101526886733871
11991303 11 17825385439061262902
13690498 29 17703225234654346413
13911987 19 18189607414530907799
15064981 113 18187641419363593252
15439362 3 18118695322292951744
19319366 153 18342181024936020931
19958102 18 18337956809306142254
20505436 4 17987259766991243505
22393880 68 17989485238265708768
23559900 14 17977103453547379345
340366 18 17766549158792973763
4409770 3 18048885387894744490
504843 32 17969224610910731106
563151 97 18410570691006883420
6058803 2 18127403450458884667
6691757 9 18267867358440949680

>  <PUBCHEM_SHAPE_MULTIPOLES>
788.61
15.86
8.74
2.82
9.48
18.24
1.5
-18.8
9.61
4.55
-3.03
-1.39
0.57
-6.09

>  <PUBCHEM_SHAPE_SELFOVERLAP>
1639.542

>  <PUBCHEM_SHAPE_VOLUME>
450.8

>  <RI>
-8.77616e+08

>  <Rbt.Current_Directory>
/root/miniconda3/envs/rdock/share/rxdock-2013.1.1_148c5bd1-0/data/ligands/prepped_ligands/Nelfinavir

>  <Rbt.Executable>
rbdock/0.1.0

>  <Rbt.Library>
librxdock.so/0.1.0

>  <Rbt.Parameter_File>
/root/miniconda3/envs/rdock/share/rxdock-2013.1.1_148c5bd1-0/data/scripts/dock.prm

>  <Rbt.Receptor>
def.prm

>  <SCORE>
0.586209

>  <SCORE.INTER>
-8.20827

>  <SCORE.INTER.CONST>
1

>  <SCORE.INTER.POLAR>
0

>  <SCORE.INTER.REPUL>
0.619533

>  <SCORE.INTER.ROT>
10

>  <SCORE.INTER.VDW>
-26.7059

>  <SCORE.INTER.norm>
-0.205207

>  <SCORE.INTRA>
8.6149

>  <SCORE.INTRA.DIHEDRAL>
8.99327

>  <SCORE.INTRA.DIHEDRAL.0>
15.8713

>  <SCORE.INTRA.POLAR>
-0.347862

>  <SCORE.INTRA.POLAR.0>
0

>  <SCORE.INTRA.REPUL>
0

>  <SCORE.INTRA.REPUL.0>
0

>  <SCORE.INTRA.VDW>
5.301

>  <SCORE.INTRA.VDW.0>
-0.89017

>  <SCORE.INTRA.norm>
0.215373

>  <SCORE.RESTR>
0

>  <SCORE.RESTR.CAVITY>
0

>  <SCORE.RESTR.norm>
0

>  <SCORE.SYSTEM>
0.179573

>  <SCORE.SYSTEM.CONST>
0

>  <SCORE.SYSTEM.DIHEDRAL>
1.93124

>  <SCORE.SYSTEM.VDW>
-0.786045

>  <SCORE.SYSTEM.norm>
0.00448934

>  <SCORE.heavy>
40

>  <SCORE.norm>
0.0146552

$$$$
64143
  RxDock  02242101303D
librxdock.so/0.1.0
 44 47  0  0  0  0  0  0  0  0999 V2000
  -47.8550    0.7307   11.9231 S   0  0  0  0  0  0
  -44.5447   -1.3047   18.6462 O   0  0  0  0  0  0
  -45.6625   -1.5478   15.1901 O   0  0  0  0  0  0
  -50.1108   -1.4083   15.1670 O   0  0  0  0  0  0
  -49.1887   -6.5868   17.5585 O   0  0  0  0  0  0
  -46.7411   -0.6769   17.3568 N   0  0  0  0  0  0
  -43.8938    0.9027   18.9966 N   0  0  0  0  0  0
  -48.2900   -2.5278   14.2686 N   0  0  0  0  0  0
  -47.5544    1.0649   19.6510 C   0  0  0  0  0  0
  -48.4384   -0.0834   19.1310 C   0  0  0  0  0  0
  -46.6119    1.5619   18.5407 C   0  0  0  0  0  0
  -47.5881   -1.1735   18.4520 C   0  0  0  0  0  0
  -46.8005    0.6897   20.9384 C   0  0  0  0  0  0
  -49.3296   -0.6593   20.2439 C   0  0  0  0  0  0
  -45.8941    0.4541   17.7549 C   0  0  0  0  0  0
  -47.7486    0.1759   22.0180 C   0  0  0  0  0  0
  -48.5669   -1.0085   21.5181 C   0  0  0  0  0  0
  -47.5229   -0.3674   16.1594 C   0  0  0  0  0  0
  -44.7131   -0.0968   18.5007 C   0  0  0  0  0  0
  -46.7585   -0.6887   14.8674 C   0  0  0  0  0  0
  -47.6081   -1.3557   13.7612 C   0  0  0  0  0  0
  -42.7027    0.6371   19.7707 C   0  0  0  0  0  0
  -48.6171   -0.3603   13.1672 C   0  0  0  0  0  0
  -41.8897    1.9293   19.9092 C   0  0  0  0  0  0
  -43.1098    0.1291   21.1578 C   0  0  0  0  0  0
  -41.8601   -0.4255   19.0557 C   0  0  0  0  0  0
  -49.4999   -2.4488   14.9369 C   0  0  0  0  0  0
  -50.0568   -3.7391   15.4183 C   0  0  0  0  0  0
  -49.0110    2.0948   11.9007 C   0  0  0  0  0  0
  -49.3329   -4.5627   16.2802 C   0  0  0  0  0  0
  -51.3289   -4.1217   14.9927 C   0  0  0  0  0  0
  -50.3742    1.8565   12.0758 C   0  0  0  0  0  0
  -48.5497    3.3968   11.7075 C   0  0  0  0  0  0
  -49.8809   -5.7688   16.7168 C   0  0  0  0  0  0
  -47.9681   -4.1602   16.7419 C   0  0  0  0  0  0
  -51.8769   -5.3279   15.4291 C   0  0  0  0  0  0
  -51.2760    2.9204   12.0579 C   0  0  0  0  0  0
  -49.4517    4.4607   11.6897 C   0  0  0  0  0  0
  -51.1529   -6.1515   16.2910 C   0  0  0  0  0  0
  -50.8148    4.2226   11.8647 C   0  0  0  0  0  0
  -44.0793    1.8668   18.7376 H   0  0  0  0  0  0
  -45.0619   -1.0484   15.7694 H   0  0  0  0  0  0
  -47.8706   -3.4384   14.1019 H   0  0  0  0  0  0
  -48.7665   -6.0480   18.2494 H   0  0  0  0  0  0
  1 23  1  0  0  0
  1 29  1  0  0  0
  2 19  2  0  0  0
  3 20  1  0  0  0
  3 42  1  0  0  0
  4 27  2  0  0  0
  5 34  1  0  0  0
  5 44  1  0  0  0
  6 12  1  0  0  0
  6 15  1  0  0  0
  6 18  1  0  0  0
  7 19  1  0  0  0
  7 22  1  0  0  0
  7 41  1  0  0  0
  8 21  1  0  0  0
  8 27  1  0  0  0
  8 43  1  0  0  0
  9 10  1  0  0  0
  9 11  1  0  0  0
  9 13  1  0  0  0
 10 12  1  0  0  0
 10 14  1  0  0  0
 11 15  1  0  0  0
 13 16  1  0  0  0
 14 17  1  0  0  0
 15 19  1  0  0  0
 16 17  1  0  0  0
 18 20  1  0  0  0
 20 21  1  0  0  0
 21 23  1  0  0  0
 22 24  1  0  0  0
 22 25  1  0  0  0
 22 26  1  0  0  0
 27 28  1  0  0  0
 28 30  2  0  0  0
 28 31  1  0  0  0
 29 32  2  0  0  0
 29 33  1  0  0  0
 30 34  1  0  0  0
 30 35  1  0  0  0
 31 36  2  0  0  0
 32 37  1  0  0  0
 33 38  2  0  0  0
 34 39  2  0  0  0
 36 39  1  0  0  0
 37 40  2  0  0  0
 38 40  1  0  0  0
M  END
>  <CHROM.0>
55.51665338,-173.25223470,-61.09300751

>  <CHROM.1>
-159.32364518,-35.17882121,-64.01455749,42.84795826,-144.76691859,168.45718364
84.12486340,2.92599698,16.46119651,68.76426687,-155.44688686,-121.44844365
-47.67521247,-0.71058606,16.47026455,-2.55171861,0.81553098,2.41925019

>  <Name>
64143

>  <PUBCHEM_ATOM_DEF_STEREO_COUNT>
5

>  <PUBCHEM_ATOM_UDEF_STEREO_COUNT>
0

>  <PUBCHEM_BOND_DEF_STEREO_COUNT>
0

>  <PUBCHEM_BOND_UDEF_STEREO_COUNT>
0

>  <PUBCHEM_CACTVS_TAUTO_COUNT>
12

>  <PUBCHEM_COMPONENT_COUNT>
1

>  <PUBCHEM_COMPOUND_CID>
64143

>  <PUBCHEM_CONFORMER_DIVERSEORDER>
1
21
84
153
101
123
82
146
125
17
85
73
20
32
151
113
8
57
53
6
52
117
108
155
94
19
118
148
88
54
130
70
105
150
142
135
56
2
77
61
92
106
139
116
7
51
96
80
93
34
132
115
24
147
122
121
67
36
124
66
145
141
112
44
110
58
104
11
79
149
50
143
60
10
46
100
74
55
129
25
30
131
114
97
47
102
111
140
134
81
16
28
109
144
152
48
86
45
126
39
87
65
29
4
95
156
35
133
27
62
78
49
75
98
99
68
15
63
90
69
107
3
103
64
41
59
76
22
9
136
12
157
33
26
23
119
89
38
71
31
138
154
14
43
127
120
72
128
18
37
42
40
137
83
5
91
13

>  <PUBCHEM_CONFORMER_ID>
0000FA8F00000001

>  <PUBCHEM_CONFORMER_RMSD>
1.4

>  <PUBCHEM_COORDINATE_TYPE>
2
5
10

>  <PUBCHEM_EFFECTIVE_ROTOR_COUNT>
13.6

>  <PUBCHEM_FEATURE_SELFOVERLAP>
66.023

>  <PUBCHEM_HEAVY_ATOM_COUNT>
40

>  <PUBCHEM_ISOTOPIC_ATOM_COUNT>
0

>  <PUBCHEM_MMFF94_ENERGY>
106.283

>  <PUBCHEM_MMFF94_PARTIAL_CHARGES>
42
1 -0.33
12 0.27
15 0.33
18 0.27
19 0.57
2 -0.57
20 0.28
21 0.3
22 0.3
23 0.23
27 0.54
28 0.09
29 0.1
3 -0.68
30 -0.14
31 -0.15
32 -0.15
33 -0.15
34 0.08
35 0.14
36 -0.15
37 -0.15
38 -0.15
39 -0.15
4 -0.57
40 -0.15
5 -0.53
59 0.37
6 -0.81
61 0.4
64 0.37
7 -0.73
74 0.15
75 0.15
76 0.15
8 -0.73
80 0.15
81 0.15
82 0.15
83 0.15
84 0.15
85 0.45

>  <PUBCHEM_PHARMACOPHORE_FEATURES>
13
1 2 acceptor
1 3 acceptor
1 3 donor
1 4 acceptor
1 5 donor
1 6 cation
1 7 donor
1 8 donor
4 22 24 25 26 hydrophobe
6 28 30 31 34 36 39 rings
6 29 32 33 37 38 40 rings
6 6 9 10 11 12 15 rings
6 9 10 13 14 16 17 rings

>  <PUBCHEM_SHAPE_FINGERPRINT>
10032420 55 18130495444200979297
10319688 77 17470141684274524266
10721379 63 18052271596134557976
11421498 54 18270101526886733871
11991303 11 17825385439061262902
13690498 29 17703225234654346413
13911987 19 18189607414530907799
15064981 113 18187641419363593252
15439362 3 18118695322292951744
19319366 153 18342181024936020931
19958102 18 18337956809306142254
20505436 4 17987259766991243505
22393880 68 17989485238265708768
23559900 14 17977103453547379345
340366 18 17766549158792973763
4409770 3 18048885387894744490
504843 32 17969224610910731106
563151 97 18410570691006883420
6058803 2 18127403450458884667
6691757 9 18267867358440949680

>  <PUBCHEM_SHAPE_MULTIPOLES>
788.61
15.86
8.74
2.82
9.48
18.24
1.5
-18.8
9.61
4.55
-3.03
-1.39
0.57
-6.09

>  <PUBCHEM_SHAPE_SELFOVERLAP>
1639.542

>  <PUBCHEM_SHAPE_VOLUME>
450.8

>  <RI>
-8.77616e+08

>  <Rbt.Current_Directory>
/root/miniconda3/envs/rdock/share/rxdock-2013.1.1_148c5bd1-0/data/ligands/prepped_ligands/Nelfinavir

>  <Rbt.Executable>
rbdock/0.1.0

>  <Rbt.Library>
librxdock.so/0.1.0

>  <Rbt.Parameter_File>
/root/miniconda3/envs/rdock/share/rxdock-2013.1.1_148c5bd1-0/data/scripts/dock.prm

>  <Rbt.Receptor>
def.prm

>  <SCORE>
-11.3451

>  <SCORE.INTER>
-16.3845

>  <SCORE.INTER.CONST>
1

>  <SCORE.INTER.POLAR>
-0.860407

>  <SCORE.INTER.REPUL>
0

>  <SCORE.INTER.ROT>
10

>  <SCORE.INTER.VDW>
-28.8591

>  <SCORE.INTER.norm>
-0.409613

>  <SCORE.INTRA>
5.98095

>  <SCORE.INTRA.DIHEDRAL>
9.69373

>  <SCORE.INTRA.DIHEDRAL.0>
15.8713

>  <SCORE.INTRA.POLAR>
0

>  <SCORE.INTRA.POLAR.0>
0

>  <SCORE.INTRA.REPUL>
0

>  <SCORE.INTRA.REPUL.0>
0

>  <SCORE.INTRA.VDW>
1.13408

>  <SCORE.INTRA.VDW.0>
-0.89017

>  <SCORE.INTRA.norm>
0.149524

>  <SCORE.RESTR>
0.00360021

>  <SCORE.RESTR.CAVITY>
0.00360021

>  <SCORE.RESTR.norm>
9.00053e-05

>  <SCORE.SYSTEM>
-0.945105

>  <SCORE.SYSTEM.CONST>
0

>  <SCORE.SYSTEM.DIHEDRAL>
0.279054

>  <SCORE.SYSTEM.VDW>
-1.08463

>  <SCORE.SYSTEM.norm>
-0.0236276

>  <SCORE.heavy>
40

>  <SCORE.norm>
-0.283627

$$$$
64143
  RxDock  02242101313D
librxdock.so/0.1.0
 44 47  0  0  0  0  0  0  0  0999 V2000
  -52.0197   -3.9985   15.3218 S   0  0  0  0  0  0
  -48.1104    0.1110   16.5016 O   0  0  0  0  0  0
  -52.7748   -0.6393   18.1249 O   0  0  0  0  0  0
  -49.6114   -4.3103   19.0043 O   0  0  0  0  0  0
  -49.7907   -9.6028   19.0658 O   0  0  0  0  0  0
  -49.8716   -1.2446   19.2447 N   0  0  0  0  0  0
  -48.5113   -2.0547   17.2551 N   0  0  0  0  0  0
  -51.8505   -4.1564   18.4226 N   0  0  0  0  0  0
  -48.5126    1.3697   19.7709 C   0  0  0  0  0  0
  -48.7200    0.3102   20.8686 C   0  0  0  0  0  0
  -49.5631    1.2033   18.6587 C   0  0  0  0  0  0
  -48.8201   -1.1026   20.2632 C   0  0  0  0  0  0
  -47.0743    1.3771   19.2253 C   0  0  0  0  0  0
  -47.6309    0.3964   21.9506 C   0  0  0  0  0  0
  -49.7760   -0.2402   18.1782 C   0  0  0  0  0  0
  -46.0470    1.5178   20.3448 C   0  0  0  0  0  0
  -46.2126    0.4204   21.3891 C   0  0  0  0  0  0
  -51.2081   -1.2710   19.8397 C   0  0  0  0  0  0
  -48.7056   -0.6845   17.2236 C   0  0  0  0  0  0
  -52.2743   -1.7641   18.8513 C   0  0  0  0  0  0
  -51.7816   -2.8301   17.8458 C   0  0  0  0  0  0
  -47.5536   -2.7368   16.4150 C   0  0  0  0  0  0
  -52.5883   -2.7683   16.5392 C   0  0  0  0  0  0
  -47.9487   -2.5548   14.9451 C   0  0  0  0  0  0
  -46.1624   -2.1412   16.6558 C   0  0  0  0  0  0
  -47.5463   -4.2297   16.7636 C   0  0  0  0  0  0
  -50.7419   -4.7886   18.9591 C   0  0  0  0  0  0
  -50.9724   -6.1576   19.4876 C   0  0  0  0  0  0
  -53.2403   -5.2881   15.5331 C   0  0  0  0  0  0
  -50.2495   -7.2495   19.0075 C   0  0  0  0  0  0
  -51.9326   -6.3401   20.4829 C   0  0  0  0  0  0
  -52.9232   -6.4362   16.2590 C   0  0  0  0  0  0
  -54.5091   -5.1462   14.9715 C   0  0  0  0  0  0
  -50.4866   -8.5239   19.5226 C   0  0  0  0  0  0
  -49.2178   -7.0630   17.9405 C   0  0  0  0  0  0
  -52.1698   -7.6146   20.9979 C   0  0  0  0  0  0
  -53.8751   -7.4423   16.4236 C   0  0  0  0  0  0
  -55.4611   -6.1525   15.1362 C   0  0  0  0  0  0
  -51.4469   -8.7065   20.5177 C   0  0  0  0  0  0
  -55.1441   -7.3005   15.8620 C   0  0  0  0  0  0
  -48.9950   -2.6058   17.9576 H   0  0  0  0  0  0
  -52.0367   -0.2754   17.6068 H   0  0  0  0  0  0
  -52.7536   -4.6216   18.4526 H   0  0  0  0  0  0
  -48.8582   -9.3529   18.9480 H   0  0  0  0  0  0
  1 23  1  0  0  0
  1 29  1  0  0  0
  2 19  2  0  0  0
  3 20  1  0  0  0
  3 42  1  0  0  0
  4 27  2  0  0  0
  5 34  1  0  0  0
  5 44  1  0  0  0
  6 12  1  0  0  0
  6 15  1  0  0  0
  6 18  1  0  0  0
  7 19  1  0  0  0
  7 22  1  0  0  0
  7 41  1  0  0  0
  8 21  1  0  0  0
  8 27  1  0  0  0
  8 43  1  0  0  0
  9 10  1  0  0  0
  9 11  1  0  0  0
  9 13  1  0  0  0
 10 12  1  0  0  0
 10 14  1  0  0  0
 11 15  1  0  0  0
 13 16  1  0  0  0
 14 17  1  0  0  0
 15 19  1  0  0  0
 16 17  1  0  0  0
 18 20  1  0  0  0
 20 21  1  0  0  0
 21 23  1  0  0  0
 22 24  1  0  0  0
 22 25  1  0  0  0
 22 26  1  0  0  0
 27 28  1  0  0  0
 28 30  2  0  0  0
 28 31  1  0  0  0
 29 32  2  0  0  0
 29 33  1  0  0  0
 30 34  1  0  0  0
 30 35  1  0  0  0
 31 36  2  0  0  0
 32 37  1  0  0  0
 33 38  2  0  0  0
 34 39  2  0  0  0
 36 39  1  0  0  0
 37 40  2  0  0  0
 38 40  1  0  0  0
M  END
>  <CHROM.0>
174.68288859,-68.73078404,-65.09977544

>  <CHROM.1>
99.84410473,-102.33744939,63.79469507,41.24671302,-165.70027049,-63.18511998
-99.26365835,-156.26662542,-88.61071670,-153.50505014,-57.21450870,-56.39857696
-50.31811623,-3.36163676,18.14593628,2.39314499,0.75263643,2.76011048

>  <Name>
64143

>  <PUBCHEM_ATOM_DEF_STEREO_COUNT>
5

>  <PUBCHEM_ATOM_UDEF_STEREO_COUNT>
0

>  <PUBCHEM_BOND_DEF_STEREO_COUNT>
0

>  <PUBCHEM_BOND_UDEF_STEREO_COUNT>
0

>  <PUBCHEM_CACTVS_TAUTO_COUNT>
12

>  <PUBCHEM_COMPONENT_COUNT>
1

>  <PUBCHEM_COMPOUND_CID>
64143

>  <PUBCHEM_CONFORMER_DIVERSEORDER>
1
21
84
153
101
123
82
146
125
17
85
73
20
32
151
113
8
57
53
6
52
117
108
155
94
19
118
148
88
54
130
70
105
150
142
135
56
2
77
61
92
106
139
116
7
51
96
80
93
34
132
115
24
147
122
121
67
36
124
66
145
141
112
44
110
58
104
11
79
149
50
143
60
10
46
100
74
55
129
25
30
131
114
97
47
102
111
140
134
81
16
28
109
144
152
48
86
45
126
39
87
65
29
4
95
156
35
133
27
62
78
49
75
98
99
68
15
63
90
69
107
3
103
64
41
59
76
22
9
136
12
157
33
26
23
119
89
38
71
31
138
154
14
43
127
120
72
128
18
37
42
40
137
83
5
91
13

>  <PUBCHEM_CONFORMER_ID>
0000FA8F00000001

>  <PUBCHEM_CONFORMER_RMSD>
1.4

>  <PUBCHEM_COORDINATE_TYPE>
2
5
10

>  <PUBCHEM_EFFECTIVE_ROTOR_COUNT>
13.6

>  <PUBCHEM_FEATURE_SELFOVERLAP>
66.023

>  <PUBCHEM_HEAVY_ATOM_COUNT>
40

>  <PUBCHEM_ISOTOPIC_ATOM_COUNT>
0

>  <PUBCHEM_MMFF94_ENERGY>
106.283

>  <PUBCHEM_MMFF94_PARTIAL_CHARGES>
42
1 -0.33
12 0.27
15 0.33
18 0.27
19 0.57
2 -0.57
20 0.28
21 0.3
22 0.3
23 0.23
27 0.54
28 0.09
29 0.1
3 -0.68
30 -0.14
31 -0.15
32 -0.15
33 -0.15
34 0.08
35 0.14
36 -0.15
37 -0.15
38 -0.15
39 -0.15
4 -0.57
40 -0.15
5 -0.53
59 0.37
6 -0.81
61 0.4
64 0.37
7 -0.73
74 0.15
75 0.15
76 0.15
8 -0.73
80 0.15
81 0.15
82 0.15
83 0.15
84 0.15
85 0.45

>  <PUBCHEM_PHARMACOPHORE_FEATURES>
13
1 2 acceptor
1 3 acceptor
1 3 donor
1 4 acceptor
1 5 donor
1 6 cation
1 7 donor
1 8 donor
4 22 24 25 26 hydrophobe
6 28 30 31 34 36 39 rings
6 29 32 33 37 38 40 rings
6 6 9 10 11 12 15 rings
6 9 10 13 14 16 17 rings

>  <PUBCHEM_SHAPE_FINGERPRINT>
10032420 55 18130495444200979297
10319688 77 17470141684274524266
10721379 63 18052271596134557976
11421498 54 18270101526886733871
11991303 11 17825385439061262902
13690498 29 17703225234654346413
13911987 19 18189607414530907799
15064981 113 18187641419363593252
15439362 3 18118695322292951744
19319366 153 18342181024936020931
19958102 18 18337956809306142254
20505436 4 17987259766991243505
22393880 68 17989485238265708768
23559900 14 17977103453547379345
340366 18 17766549158792973763
4409770 3 18048885387894744490
504843 32 17969224610910731106
563151 97 18410570691006883420
6058803 2 18127403450458884667
6691757 9 18267867358440949680

>  <PUBCHEM_SHAPE_MULTIPOLES>
788.61
15.86
8.74
2.82
9.48
18.24
1.5
-18.8
9.61
4.55
-3.03
-1.39
0.57
-6.09

>  <PUBCHEM_SHAPE_SELFOVERLAP>
1639.542

>  <PUBCHEM_SHAPE_VOLUME>
450.8

>  <RI>
-8.77616e+08

>  <Rbt.Current_Directory>
/root/miniconda3/envs/rdock/share/rxdock-2013.1.1_148c5bd1-0/data/ligands/prepped_ligands/Nelfinavir

>  <Rbt.Executable>
rbdock/0.1.0

>  <Rbt.Library>
librxdock.so/0.1.0

>  <Rbt.Parameter_File>
/root/miniconda3/envs/rdock/share/rxdock-2013.1.1_148c5bd1-0/data/scripts/dock.prm

>  <Rbt.Receptor>
def.prm

>  <SCORE>
-12.9605

>  <SCORE.INTER>
-9.18214

>  <SCORE.INTER.CONST>
1

>  <SCORE.INTER.POLAR>
0

>  <SCORE.INTER.REPUL>
0.0719956

>  <SCORE.INTER.ROT>
10

>  <SCORE.INTER.VDW>
-24.9421

>  <SCORE.INTER.norm>
-0.229554

>  <SCORE.INTRA>
-2.89661

>  <SCORE.INTRA.DIHEDRAL>
7.99939

>  <SCORE.INTRA.DIHEDRAL.0>
15.8713

>  <SCORE.INTRA.POLAR>
-1.11951

>  <SCORE.INTRA.POLAR.0>
0

>  <SCORE.INTRA.REPUL>
0

>  <SCORE.INTRA.REPUL.0>
0

>  <SCORE.INTRA.VDW>
-3.08998

>  <SCORE.INTRA.VDW.0>
-0.89017

>  <SCORE.INTRA.norm>
-0.0724152

>  <SCORE.RESTR>
0

>  <SCORE.RESTR.CAVITY>
0

>  <SCORE.RESTR.norm>
0

>  <SCORE.SYSTEM>
-0.881744

>  <SCORE.SYSTEM.CONST>
0

>  <SCORE.SYSTEM.DIHEDRAL>
0.51094

>  <SCORE.SYSTEM.VDW>
-1.13721

>  <SCORE.SYSTEM.norm>
-0.0220436

>  <SCORE.heavy>
40

>  <SCORE.norm>
-0.324012

$$$$
64143
  RxDock  02242101313D
librxdock.so/0.1.0
 44 47  0  0  0  0  0  0  0  0999 V2000
  -50.1472   -0.1779   17.4202 S   0  0  0  0  0  0
  -45.9429   -2.1888   18.4041 O   0  0  0  0  0  0
  -50.8445   -1.0948   21.3403 O   0  0  0  0  0  0
  -48.9195   -4.6188   18.2708 O   0  0  0  0  0  0
  -51.9462   -8.8534   17.4925 O   0  0  0  0  0  0
  -47.4050   -0.6892   19.9935 N   0  0  0  0  0  0
  -46.1228   -0.7442   16.5877 N   0  0  0  0  0  0
  -50.5126   -3.5190   19.5468 N   0  0  0  0  0  0
  -45.8680    1.7566   19.2099 C   0  0  0  0  0  0
  -46.0261    1.3142   20.6761 C   0  0  0  0  0  0
  -47.0258    1.2097   18.3563 C   0  0  0  0  0  0
  -46.2563   -0.2056   20.7745 C   0  0  0  0  0  0
  -44.4890    1.3947   18.6322 C   0  0  0  0  0  0
  -44.8370    1.7726   21.5364 C   0  0  0  0  0  0
  -47.3579   -0.2723   18.5867 C   0  0  0  0  0  0
  -43.3550    1.9239   19.5053 C   0  0  0  0  0  0
  -43.4786    1.4203   20.9383 C   0  0  0  0  0  0
  -48.6790   -0.3315   20.6177 C   0  0  0  0  0  0
  -46.4067   -1.1856   17.8686 C   0  0  0  0  0  0
  -49.6366   -1.5279   20.7105 C   0  0  0  0  0  0
  -49.9865   -2.1839   19.3549 C   0  0  0  0  0  0
  -45.2170   -1.4329   15.6969 C   0  0  0  0  0  0
  -50.9837   -1.3200   18.5669 C   0  0  0  0  0  0
  -45.8522   -2.7548   15.2507 C   0  0  0  0  0  0
  -44.9473   -0.5485   14.4750 C   0  0  0  0  0  0
  -43.9021   -1.7174   16.4319 C   0  0  0  0  0  0
  -49.9231   -4.6355   18.9788 C   0  0  0  0  0  0
  -50.5993   -5.9303   19.2489 C   0  0  0  0  0  0
  -49.9484   -1.2158   15.9777 C   0  0  0  0  0  0
  -50.9561   -6.7904   18.2105 C   0  0  0  0  0  0
  -50.8764   -6.2801   20.5705 C   0  0  0  0  0  0
  -50.4201   -0.7844   14.7379 C   0  0  0  0  0  0
  -49.3224   -2.4569   16.0923 C   0  0  0  0  0  0
  -51.5897   -8.0004   18.4935 C   0  0  0  0  0  0
  -50.6626   -6.4235   16.7903 C   0  0  0  0  0  0
  -51.5102   -7.4901   20.8535 C   0  0  0  0  0  0
  -50.2655   -1.5940   13.6127 C   0  0  0  0  0  0
  -49.1677   -3.2665   14.9670 C   0  0  0  0  0  0
  -51.8670   -8.3501   19.8150 C   0  0  0  0  0  0
  -49.6393   -2.8352   13.7273 C   0  0  0  0  0  0
  -46.6346    0.0494   16.2143 H   0  0  0  0  0  0
  -51.1790   -0.3334   20.8362 H   0  0  0  0  0  0
  -51.3291   -3.6336   20.1410 H   0  0  0  0  0  0
  -52.3368   -8.3420   16.7631 H   0  0  0  0  0  0
  1 23  1  0  0  0
  1 29  1  0  0  0
  2 19  2  0  0  0
  3 20  1  0  0  0
  3 42  1  0  0  0
  4 27  2  0  0  0
  5 34  1  0  0  0
  5 44  1  0  0  0
  6 12  1  0  0  0
  6 15  1  0  0  0
  6 18  1  0  0  0
  7 19  1  0  0  0
  7 22  1  0  0  0
  7 41  1  0  0  0
  8 21  1  0  0  0
  8 27  1  0  0  0
  8 43  1  0  0  0
  9 10  1  0  0  0
  9 11  1  0  0  0
  9 13  1  0  0  0
 10 12  1  0  0  0
 10 14  1  0  0  0
 11 15  1  0  0  0
 13 16  1  0  0  0
 14 17  1  0  0  0
 15 19  1  0  0  0
 16 17  1  0  0  0
 18 20  1  0  0  0
 20 21  1  0  0  0
 21 23  1  0  0  0
 22 24  1  0  0  0
 22 25  1  0  0  0
 22 26  1  0  0  0
 27 28  1  0  0  0
 28 30  2  0  0  0
 28 31  1  0  0  0
 29 32  2  0  0  0
 29 33  1  0  0  0
 30 34  1  0  0  0
 30 35  1  0  0  0
 31 36  2  0  0  0
 32 37  1  0  0  0
 33 38  2  0  0  0
 34 39  2  0  0  0
 36 39  1  0  0  0
 37 40  2  0  0  0
 38 40  1  0  0  0
M  END
>  <CHROM.0>
59.21262780,64.13717791,-63.52625615

>  <CHROM.1>
86.32208872,126.10836762,54.75688805,-43.00298856,-131.58884541,69.90466502
-121.67892939,8.89283310,179.47192521,-76.80655554,-143.37759600,-51.42907137
-48.34887952,-2.18072588,18.19398882,-0.15157803,-0.87205645,-1.70803362

>  <Name>
64143

>  <PUBCHEM_ATOM_DEF_STEREO_COUNT>
5

>  <PUBCHEM_ATOM_UDEF_STEREO_COUNT>
0

>  <PUBCHEM_BOND_DEF_STEREO_COUNT>
0

>  <PUBCHEM_BOND_UDEF_STEREO_COUNT>
0

>  <PUBCHEM_CACTVS_TAUTO_COUNT>
12

>  <PUBCHEM_COMPONENT_COUNT>
1

>  <PUBCHEM_COMPOUND_CID>
64143

>  <PUBCHEM_CONFORMER_DIVERSEORDER>
1
21
84
153
101
123
82
146
125
17
85
73
20
32
151
113
8
57
53
6
52
117
108
155
94
19
118
148
88
54
130
70
105
150
142
135
56
2
77
61
92
106
139
116
7
51
96
80
93
34
132
115
24
147
122
121
67
36
124
66
145
141
112
44
110
58
104
11
79
149
50
143
60
10
46
100
74
55
129
25
30
131
114
97
47
102
111
140
134
81
16
28
109
144
152
48
86
45
126
39
87
65
29
4
95
156
35
133
27
62
78
49
75
98
99
68
15
63
90
69
107
3
103
64
41
59
76
22
9
136
12
157
33
26
23
119
89
38
71
31
138
154
14
43
127
120
72
128
18
37
42
40
137
83
5
91
13

>  <PUBCHEM_CONFORMER_ID>
0000FA8F00000001

>  <PUBCHEM_CONFORMER_RMSD>
1.4

>  <PUBCHEM_COORDINATE_TYPE>
2
5
10

>  <PUBCHEM_EFFECTIVE_ROTOR_COUNT>
13.6

>  <PUBCHEM_FEATURE_SELFOVERLAP>
66.023

>  <PUBCHEM_HEAVY_ATOM_COUNT>
40

>  <PUBCHEM_ISOTOPIC_ATOM_COUNT>
0

>  <PUBCHEM_MMFF94_ENERGY>
106.283

>  <PUBCHEM_MMFF94_PARTIAL_CHARGES>
42
1 -0.33
12 0.27
15 0.33
18 0.27
19 0.57
2 -0.57
20 0.28
21 0.3
22 0.3
23 0.23
27 0.54
28 0.09
29 0.1
3 -0.68
30 -0.14
31 -0.15
32 -0.15
33 -0.15
34 0.08
35 0.14
36 -0.15
37 -0.15
38 -0.15
39 -0.15
4 -0.57
40 -0.15
5 -0.53
59 0.37
6 -0.81
61 0.4
64 0.37
7 -0.73
74 0.15
75 0.15
76 0.15
8 -0.73
80 0.15
81 0.15
82 0.15
83 0.15
84 0.15
85 0.45

>  <PUBCHEM_PHARMACOPHORE_FEATURES>
13
1 2 acceptor
1 3 acceptor
1 3 donor
1 4 acceptor
1 5 donor
1 6 cation
1 7 donor
1 8 donor
4 22 24 25 26 hydrophobe
6 28 30 31 34 36 39 rings
6 29 32 33 37 38 40 rings
6 6 9 10 11 12 15 rings
6 9 10 13 14 16 17 rings

>  <PUBCHEM_SHAPE_FINGERPRINT>
10032420 55 18130495444200979297
10319688 77 17470141684274524266
10721379 63 18052271596134557976
11421498 54 18270101526886733871
11991303 11 17825385439061262902
13690498 29 17703225234654346413
13911987 19 18189607414530907799
15064981 113 18187641419363593252
15439362 3 18118695322292951744
19319366 153 18342181024936020931
19958102 18 18337956809306142254
20505436 4 17987259766991243505
22393880 68 17989485238265708768
23559900 14 17977103453547379345
340366 18 17766549158792973763
4409770 3 18048885387894744490
504843 32 17969224610910731106
563151 97 18410570691006883420
6058803 2 18127403450458884667
6691757 9 18267867358440949680

>  <PUBCHEM_SHAPE_MULTIPOLES>
788.61
15.86
8.74
2.82
9.48
18.24
1.5
-18.8
9.61
4.55
-3.03
-1.39
0.57
-6.09

>  <PUBCHEM_SHAPE_SELFOVERLAP>
1639.542

>  <PUBCHEM_SHAPE_VOLUME>
450.8

>  <RI>
-8.77616e+08

>  <Rbt.Current_Directory>
/root/miniconda3/envs/rdock/share/rxdock-2013.1.1_148c5bd1-0/data/ligands/prepped_ligands/Nelfinavir

>  <Rbt.Executable>
rbdock/0.1.0

>  <Rbt.Library>
librxdock.so/0.1.0

>  <Rbt.Parameter_File>
/root/miniconda3/envs/rdock/share/rxdock-2013.1.1_148c5bd1-0/data/scripts/dock.prm

>  <Rbt.Receptor>
def.prm

>  <SCORE>
-9.02752

>  <SCORE.INTER>
-9.67349

>  <SCORE.INTER.CONST>
1

>  <SCORE.INTER.POLAR>
-0.655178

>  <SCORE.INTER.REPUL>
0

>  <SCORE.INTER.ROT>
10

>  <SCORE.INTER.VDW>
-22.8459

>  <SCORE.INTER.norm>
-0.241837

>  <SCORE.INTRA>
1.16913

>  <SCORE.INTRA.DIHEDRAL>
7.45954

>  <SCORE.INTRA.DIHEDRAL.0>
15.8713

>  <SCORE.INTRA.POLAR>
0

>  <SCORE.INTRA.POLAR.0>
0

>  <SCORE.INTRA.REPUL>
0

>  <SCORE.INTRA.REPUL.0>
0

>  <SCORE.INTRA.VDW>
-2.56064

>  <SCORE.INTRA.VDW.0>
-0.89017

>  <SCORE.INTRA.norm>
0.0292283

>  <SCORE.RESTR>
0.483959

>  <SCORE.RESTR.CAVITY>
0.483959

>  <SCORE.RESTR.norm>
0.012099

>  <SCORE.SYSTEM>
-1.00713

>  <SCORE.SYSTEM.CONST>
0

>  <SCORE.SYSTEM.DIHEDRAL>
0.119899

>  <SCORE.SYSTEM.VDW>
-1.06708

>  <SCORE.SYSTEM.norm>
-0.0251782

>  <SCORE.heavy>
40

>  <SCORE.norm>
-0.225688

$$$$
64143
  RxDock  02242101313D
librxdock.so/0.1.0
 44 47  0  0  0  0  0  0  0  0999 V2000
  -52.8706   -4.2055   15.1201 S   0  0  0  0  0  0
  -48.1835    0.0142   16.2711 O   0  0  0  0  0  0
  -52.7544   -1.3879   18.7008 O   0  0  0  0  0  0
  -51.8610   -5.5964   18.8424 O   0  0  0  0  0  0
  -49.1396   -9.9347   18.1204 O   0  0  0  0  0  0
  -49.5635   -1.5940   18.4953 N   0  0  0  0  0  0
  -50.1272   -0.9407   15.4173 N   0  0  0  0  0  0
  -50.6894   -4.1808   17.4285 N   0  0  0  0  0  0
  -48.4763    1.1064   19.1914 C   0  0  0  0  0  0
  -48.1130   -0.1611   19.9864 C   0  0  0  0  0  0
  -49.8325    0.9275   18.4864 C   0  0  0  0  0  0
  -48.2380   -1.4206   19.1086 C   0  0  0  0  0  0
  -47.3606    1.5319   18.2215 C   0  0  0  0  0  0
  -46.7217   -0.0449   20.6307 C   0  0  0  0  0  0
  -50.0103   -0.4097   17.7516 C   0  0  0  0  0  0
  -46.0195    1.6796   18.9342 C   0  0  0  0  0  0
  -45.6325    0.3951   19.6573 C   0  0  0  0  0  0
  -50.5647   -2.0248   19.4714 C   0  0  0  0  0  0
  -49.3232   -0.4197   16.4165 C   0  0  0  0  0  0
  -51.8619   -2.5000   18.8020 C   0  0  0  0  0  0
  -51.6762   -3.1218   17.3987 C   0  0  0  0  0  0
  -49.7091   -1.0402   14.0376 C   0  0  0  0  0  0
  -53.0120   -3.6454   16.8478 C   0  0  0  0  0  0
  -50.7366   -1.8658   13.2550 C   0  0  0  0  0  0
  -49.6120    0.3678   13.4410 C   0  0  0  0  0  0
  -48.3403   -1.7274   13.9712 C   0  0  0  0  0  0
  -50.8723   -5.3424   18.1592 C   0  0  0  0  0  0
  -49.7552   -6.3202   18.1073 C   0  0  0  0  0  0
  -53.8504   -5.7008   15.1570 C   0  0  0  0  0  0
  -49.9943   -7.6939   18.1399 C   0  0  0  0  0  0
  -48.4475   -5.8417   18.0242 C   0  0  0  0  0  0
  -53.5746   -6.6922   16.0987 C   0  0  0  0  0  0
  -54.8900   -5.8762   14.2439 C   0  0  0  0  0  0
  -48.9259   -8.5892   18.0892 C   0  0  0  0  0  0
  -51.3933   -8.2159   18.2288 C   0  0  0  0  0  0
  -47.3791   -6.7370   17.9736 C   0  0  0  0  0  0
  -54.3386   -7.8588   16.1274 C   0  0  0  0  0  0
  -55.6541   -7.0429   14.2726 C   0  0  0  0  0  0
  -47.6182   -8.1108   18.0063 C   0  0  0  0  0  0
  -55.3783   -8.0342   15.2142 C   0  0  0  0  0  0
  -51.0197   -1.3552   15.6678 H   0  0  0  0  0  0
  -52.9392   -1.0798   19.6044 H   0  0  0  0  0  0
  -49.8472   -4.0695   16.8707 H   0  0  0  0  0  0
  -48.2896  -10.3885   18.2533 H   0  0  0  0  0  0
  1 23  1  0  0  0
  1 29  1  0  0  0
  2 19  2  0  0  0
  3 20  1  0  0  0
  3 42  1  0  0  0
  4 27  2  0  0  0
  5 34  1  0  0  0
  5 44  1  0  0  0
  6 12  1  0  0  0
  6 15  1  0  0  0
  6 18  1  0  0  0
  7 19  1  0  0  0
  7 22  1  0  0  0
  7 41  1  0  0  0
  8 21  1  0  0  0
  8 27  1  0  0  0
  8 43  1  0  0  0
  9 10  1  0  0  0
  9 11  1  0  0  0
  9 13  1  0  0  0
 10 12  1  0  0  0
 10 14  1  0  0  0
 11 15  1  0  0  0
 13 16  1  0  0  0
 14 17  1  0  0  0
 15 19  1  0  0  0
 16 17  1  0  0  0
 18 20  1  0  0  0
 20 21  1  0  0  0
 21 23  1  0  0  0
 22 24  1  0  0  0
 22 25  1  0  0  0
 22 26  1  0  0  0
 27 28  1  0  0  0
 28 30  2  0  0  0
 28 31  1  0  0  0
 29 32  2  0  0  0
 29 33  1  0  0  0
 30 34  1  0  0  0
 30 35  1  0  0  0
 31 36  2  0  0  0
 32 37  1  0  0  0
 33 38  2  0  0  0
 34 39  2  0  0  0
 36 39  1  0  0  0
 37 40  2  0  0  0
 38 40  1  0  0  0
M  END
>  <CHROM.0>
64.50796202,-179.18795828,-52.91542792

>  <CHROM.1>
138.49354512,-53.61498154,-61.05971936,-168.93335675,-167.57472873,170.70986913
63.79877352,-82.98271079,-92.00736560,175.02344456,-63.24719669,35.41188945
-50.37104819,-3.42444588,17.18477932,2.27584284,0.66552716,2.88929222

>  <Name>
64143

>  <PUBCHEM_ATOM_DEF_STEREO_COUNT>
5

>  <PUBCHEM_ATOM_UDEF_STEREO_COUNT>
0

>  <PUBCHEM_BOND_DEF_STEREO_COUNT>
0

>  <PUBCHEM_BOND_UDEF_STEREO_COUNT>
0

>  <PUBCHEM_CACTVS_TAUTO_COUNT>
12

>  <PUBCHEM_COMPONENT_COUNT>
1

>  <PUBCHEM_COMPOUND_CID>
64143

>  <PUBCHEM_CONFORMER_DIVERSEORDER>
1
21
84
153
101
123
82
146
125
17
85
73
20
32
151
113
8
57
53
6
52
117
108
155
94
19
118
148
88
54
130
70
105
150
142
135
56
2
77
61
92
106
139
116
7
51
96
80
93
34
132
115
24
147
122
121
67
36
124
66
145
141
112
44
110
58
104
11
79
149
50
143
60
10
46
100
74
55
129
25
30
131
114
97
47
102
111
140
134
81
16
28
109
144
152
48
86
45
126
39
87
65
29
4
95
156
35
133
27
62
78
49
75
98
99
68
15
63
90
69
107
3
103
64
41
59
76
22
9
136
12
157
33
26
23
119
89
38
71
31
138
154
14
43
127
120
72
128
18
37
42
40
137
83
5
91
13

>  <PUBCHEM_CONFORMER_ID>
0000FA8F00000001

>  <PUBCHEM_CONFORMER_RMSD>
1.4

>  <PUBCHEM_COORDINATE_TYPE>
2
5
10

>  <PUBCHEM_EFFECTIVE_ROTOR_COUNT>
13.6

>  <PUBCHEM_FEATURE_SELFOVERLAP>
66.023

>  <PUBCHEM_HEAVY_ATOM_COUNT>
40

>  <PUBCHEM_ISOTOPIC_ATOM_COUNT>
0

>  <PUBCHEM_MMFF94_ENERGY>
106.283

>  <PUBCHEM_MMFF94_PARTIAL_CHARGES>
42
1 -0.33
12 0.27
15 0.33
18 0.27
19 0.57
2 -0.57
20 0.28
21 0.3
22 0.3
23 0.23
27 0.54
28 0.09
29 0.1
3 -0.68
30 -0.14
31 -0.15
32 -0.15
33 -0.15
34 0.08
35 0.14
36 -0.15
37 -0.15
38 -0.15
39 -0.15
4 -0.57
40 -0.15
5 -0.53
59 0.37
6 -0.81
61 0.4
64 0.37
7 -0.73
74 0.15
75 0.15
76 0.15
8 -0.73
80 0.15
81 0.15
82 0.15
83 0.15
84 0.15
85 0.45

>  <PUBCHEM_PHARMACOPHORE_FEATURES>
13
1 2 acceptor
1 3 acceptor
1 3 donor
1 4 acceptor
1 5 donor
1 6 cation
1 7 donor
1 8 donor
4 22 24 25 26 hydrophobe
6 28 30 31 34 36 39 rings
6 29 32 33 37 38 40 rings
6 6 9 10 11 12 15 rings
6 9 10 13 14 16 17 rings

>  <PUBCHEM_SHAPE_FINGERPRINT>
10032420 55 18130495444200979297
10319688 77 17470141684274524266
10721379 63 18052271596134557976
11421498 54 18270101526886733871
11991303 11 17825385439061262902
13690498 29 17703225234654346413
13911987 19 18189607414530907799
15064981 113 18187641419363593252
15439362 3 18118695322292951744
19319366 153 18342181024936020931
19958102 18 18337956809306142254
20505436 4 17987259766991243505
22393880 68 17989485238265708768
23559900 14 17977103453547379345
340366 18 17766549158792973763
4409770 3 18048885387894744490
504843 32 17969224610910731106
563151 97 18410570691006883420
6058803 2 18127403450458884667
6691757 9 18267867358440949680

>  <PUBCHEM_SHAPE_MULTIPOLES>
788.61
15.86
8.74
2.82
9.48
18.24
1.5
-18.8
9.61
4.55
-3.03
-1.39
0.57
-6.09

>  <PUBCHEM_SHAPE_SELFOVERLAP>
1639.542

>  <PUBCHEM_SHAPE_VOLUME>
450.8

>  <RI>
-8.77616e+08

>  <Rbt.Current_Directory>
/root/miniconda3/envs/rdock/share/rxdock-2013.1.1_148c5bd1-0/data/ligands/prepped_ligands/Nelfinavir

>  <Rbt.Executable>
rbdock/0.1.0

>  <Rbt.Library>
librxdock.so/0.1.0

>  <Rbt.Parameter_File>
/root/miniconda3/envs/rdock/share/rxdock-2013.1.1_148c5bd1-0/data/scripts/dock.prm

>  <Rbt.Receptor>
def.prm

>  <SCORE>
-17.4942

>  <SCORE.INTER>
-16.9496

>  <SCORE.INTER.CONST>
1

>  <SCORE.INTER.POLAR>
0

>  <SCORE.INTER.REPUL>
0

>  <SCORE.INTER.ROT>
10

>  <SCORE.INTER.VDW>
-32.3496

>  <SCORE.INTER.norm>
-0.423739

>  <SCORE.INTRA>
0.410889

>  <SCORE.INTRA.DIHEDRAL>
0.40253

>  <SCORE.INTRA.DIHEDRAL.0>
15.8713

>  <SCORE.INTRA.POLAR>
0

>  <SCORE.INTRA.POLAR.0>
0

>  <SCORE.INTRA.REPUL>
0

>  <SCORE.INTRA.REPUL.0>
0

>  <SCORE.INTRA.VDW>
0.209624

>  <SCORE.INTRA.VDW.0>
-0.89017

>  <SCORE.INTRA.norm>
0.0102722

>  <SCORE.RESTR>
0

>  <SCORE.RESTR.CAVITY>
0

>  <SCORE.RESTR.norm>
0

>  <SCORE.SYSTEM>
-0.955468

>  <SCORE.SYSTEM.CONST>
0

>  <SCORE.SYSTEM.DIHEDRAL>
0.166834

>  <SCORE.SYSTEM.POLAR>
-0.0145609

>  <SCORE.SYSTEM.VDW>
-0.989378

>  <SCORE.SYSTEM.norm>
-0.0238867

>  <SCORE.heavy>
40

>  <SCORE.norm>
-0.437354

$$$$
64143
  RxDock  02242101313D
librxdock.so/0.1.0
 44 47  0  0  0  0  0  0  0  0999 V2000
  -49.4701   -5.6285   20.5886 S   0  0  0  0  0  0
  -46.8058   -1.9598   18.7754 O   0  0  0  0  0  0
  -52.0276   -2.6298   21.3577 O   0  0  0  0  0  0
  -51.9998   -2.3504   17.1156 O   0  0  0  0  0  0
  -50.2307   -2.8765   12.2945 O   0  0  0  0  0  0
  -49.1858   -1.2580   19.6344 N   0  0  0  0  0  0
  -46.9607   -0.7444   16.7961 N   0  0  0  0  0  0
  -50.5792   -3.8219   18.2073 N   0  0  0  0  0  0
  -48.5555    1.6202   19.1081 C   0  0  0  0  0  0
  -49.0019    1.1113   20.4909 C   0  0  0  0  0  0
  -49.0588    0.6774   18.0009 C   0  0  0  0  0  0
  -48.6419   -0.3747   20.6771 C   0  0  0  0  0  0
  -47.0379    1.8601   19.0318 C   0  0  0  0  0  0
  -48.4395    1.9856   21.6238 C   0  0  0  0  0  0
  -48.8446   -0.8187   18.2758 C   0  0  0  0  0  0
  -46.5546    2.7765   20.1520 C   0  0  0  0  0  0
  -46.9366    2.2265   21.5209 C   0  0  0  0  0  0
  -50.6268   -1.4607   19.7876 C   0  0  0  0  0  0
  -47.4349   -1.2517   17.9936 C   0  0  0  0  0  0
  -50.9579   -2.8161   20.4280 C   0  0  0  0  0  0
  -51.3528   -3.9260   19.4267 C   0  0  0  0  0  0
  -45.6247   -0.9947   16.3053 C   0  0  0  0  0  0
  -51.1841   -5.3186   20.0546 C   0  0  0  0  0  0
  -45.3169   -2.4924   16.4148 C   0  0  0  0  0  0
  -45.5383   -0.5530   14.8406 C   0  0  0  0  0  0
  -44.6187   -0.2010   17.1469 C   0  0  0  0  0  0
  -50.9776   -3.0309   17.1433 C   0  0  0  0  0  0
  -50.0877   -3.0528   15.9540 C   0  0  0  0  0  0
  -49.0882   -7.1233   19.6844 C   0  0  0  0  0  0
  -50.6042   -2.9512   14.6624 C   0  0  0  0  0  0
  -48.7119   -3.1773   16.1473 C   0  0  0  0  0  0
  -49.8132   -8.2898   19.9277 C   0  0  0  0  0  0
  -48.0650   -7.1228   18.7365 C   0  0  0  0  0  0
  -49.7449   -2.9740   13.5639 C   0  0  0  0  0  0
  -52.0782   -2.8172   14.4459 C   0  0  0  0  0  0
  -47.8526   -3.2002   15.0487 C   0  0  0  0  0  0
  -49.5151   -9.4560   19.2228 C   0  0  0  0  0  0
  -47.7670   -8.2891   18.0316 C   0  0  0  0  0  0
  -48.3690   -3.0988   13.7570 C   0  0  0  0  0  0
  -48.4918   -9.4556   18.2748 C   0  0  0  0  0  0
  -47.5990   -0.2450   16.1844 H   0  0  0  0  0  0
  -52.1406   -3.4650   21.8427 H   0  0  0  0  0  0
  -49.7018   -4.3316   18.1492 H   0  0  0  0  0  0
  -49.8734   -2.0734   11.8783 H   0  0  0  0  0  0
  1 23  1  0  0  0
  1 29  1  0  0  0
  2 19  2  0  0  0
  3 20  1  0  0  0
  3 42  1  0  0  0
  4 27  2  0  0  0
  5 34  1  0  0  0
  5 44  1  0  0  0
  6 12  1  0  0  0
  6 15  1  0  0  0
  6 18  1  0  0  0
  7 19  1  0  0  0
  7 22  1  0  0  0
  7 41  1  0  0  0
  8 21  1  0  0  0
  8 27  1  0  0  0
  8 43  1  0  0  0
  9 10  1  0  0  0
  9 11  1  0  0  0
  9 13  1  0  0  0
 10 12  1  0  0  0
 10 14  1  0  0  0
 11 15  1  0  0  0
 13 16  1  0  0  0
 14 17  1  0  0  0
 15 19  1  0  0  0
 16 17  1  0  0  0
 18 20  1  0  0  0
 20 21  1  0  0  0
 21 23  1  0  0  0
 22 24  1  0  0  0
 22 25  1  0  0  0
 22 26  1  0  0  0
 27 28  1  0  0  0
 28 30  2  0  0  0
 28 31  1  0  0  0
 29 32  2  0  0  0
 29 33  1  0  0  0
 30 34  1  0  0  0
 30 35  1  0  0  0
 31 36  2  0  0  0
 32 37  1  0  0  0
 33 38  2  0  0  0
 34 39  2  0  0  0
 36 39  1  0  0  0
 37 40  2  0  0  0
 38 40  1  0  0  0
M  END
>  <CHROM.0>
168.50792579,173.51381824,58.87664297

>  <CHROM.1>
-123.45833056,-62.43699100,-172.19707499,118.10906244,-101.62537734,47.68542145
-87.82127705,6.29880614,139.44228798,158.56817542,64.32418220,-33.41590191
-48.87643450,-2.61537048,18.09930185,2.59700652,-1.23316532,-2.08383956

>  <Name>
64143

>  <PUBCHEM_ATOM_DEF_STEREO_COUNT>
5

>  <PUBCHEM_ATOM_UDEF_STEREO_COUNT>
0

>  <PUBCHEM_BOND_DEF_STEREO_COUNT>
0

>  <PUBCHEM_BOND_UDEF_STEREO_COUNT>
0

>  <PUBCHEM_CACTVS_TAUTO_COUNT>
12

>  <PUBCHEM_COMPONENT_COUNT>
1

>  <PUBCHEM_COMPOUND_CID>
64143

>  <PUBCHEM_CONFORMER_DIVERSEORDER>
1
21
84
153
101
123
82
146
125
17
85
73
20
32
151
113
8
57
53
6
52
117
108
155
94
19
118
148
88
54
130
70
105
150
142
135
56
2
77
61
92
106
139
116
7
51
96
80
93
34
132
115
24
147
122
121
67
36
124
66
145
141
112
44
110
58
104
11
79
149
50
143
60
10
46
100
74
55
129
25
30
131
114
97
47
102
111
140
134
81
16
28
109
144
152
48
86
45
126
39
87
65
29
4
95
156
35
133
27
62
78
49
75
98
99
68
15
63
90
69
107
3
103
64
41
59
76
22
9
136
12
157
33
26
23
119
89
38
71
31
138
154
14
43
127
120
72
128
18
37
42
40
137
83
5
91
13

>  <PUBCHEM_CONFORMER_ID>
0000FA8F00000001

>  <PUBCHEM_CONFORMER_RMSD>
1.4

>  <PUBCHEM_COORDINATE_TYPE>
2
5
10

>  <PUBCHEM_EFFECTIVE_ROTOR_COUNT>
13.6

>  <PUBCHEM_FEATURE_SELFOVERLAP>
66.023

>  <PUBCHEM_HEAVY_ATOM_COUNT>
40

>  <PUBCHEM_ISOTOPIC_ATOM_COUNT>
0

>  <PUBCHEM_MMFF94_ENERGY>
106.283

>  <PUBCHEM_MMFF94_PARTIAL_CHARGES>
42
1 -0.33
12 0.27
15 0.33
18 0.27
19 0.57
2 -0.57
20 0.28
21 0.3
22 0.3
23 0.23
27 0.54
28 0.09
29 0.1
3 -0.68
30 -0.14
31 -0.15
32 -0.15
33 -0.15
34 0.08
35 0.14
36 -0.15
37 -0.15
38 -0.15
39 -0.15
4 -0.57
40 -0.15
5 -0.53
59 0.37
6 -0.81
61 0.4
64 0.37
7 -0.73
74 0.15
75 0.15
76 0.15
8 -0.73
80 0.15
81 0.15
82 0.15
83 0.15
84 0.15
85 0.45

>  <PUBCHEM_PHARMACOPHORE_FEATURES>
13
1 2 acceptor
1 3 acceptor
1 3 donor
1 4 acceptor
1 5 donor
1 6 cation
1 7 donor
1 8 donor
4 22 24 25 26 hydrophobe
6 28 30 31 34 36 39 rings
6 29 32 33 37 38 40 rings
6 6 9 10 11 12 15 rings
6 9 10 13 14 16 17 rings

>  <PUBCHEM_SHAPE_FINGERPRINT>
10032420 55 18130495444200979297
10319688 77 17470141684274524266
10721379 63 18052271596134557976
11421498 54 18270101526886733871
11991303 11 17825385439061262902
13690498 29 17703225234654346413
13911987 19 18189607414530907799
15064981 113 18187641419363593252
15439362 3 18118695322292951744
19319366 153 18342181024936020931
19958102 18 18337956809306142254
20505436 4 17987259766991243505
22393880 68 17989485238265708768
23559900 14 17977103453547379345
340366 18 17766549158792973763
4409770 3 18048885387894744490
504843 32 17969224610910731106
563151 97 18410570691006883420
6058803 2 18127403450458884667
6691757 9 18267867358440949680

>  <PUBCHEM_SHAPE_MULTIPOLES>
788.61
15.86
8.74
2.82
9.48
18.24
1.5
-18.8
9.61
4.55
-3.03
-1.39
0.57
-6.09

>  <PUBCHEM_SHAPE_SELFOVERLAP>
1639.542

>  <PUBCHEM_SHAPE_VOLUME>
450.8

>  <RI>
-8.77616e+08

>  <Rbt.Current_Directory>
/root/miniconda3/envs/rdock/share/rxdock-2013.1.1_148c5bd1-0/data/ligands/prepped_ligands/Nelfinavir

>  <Rbt.Executable>
rbdock/0.1.0

>  <Rbt.Library>
librxdock.so/0.1.0

>  <Rbt.Parameter_File>
/root/miniconda3/envs/rdock/share/rxdock-2013.1.1_148c5bd1-0/data/scripts/dock.prm

>  <Rbt.Receptor>
def.prm

>  <SCORE>
-3.89194

>  <SCORE.INTER>
-7.04491

>  <SCORE.INTER.CONST>
1

>  <SCORE.INTER.POLAR>
-1.37989

>  <SCORE.INTER.REPUL>
0

>  <SCORE.INTER.ROT>
10

>  <SCORE.INTER.VDW>
-17.7533

>  <SCORE.INTER.norm>
-0.176123

>  <SCORE.INTRA>
2.76713

>  <SCORE.INTRA.DIHEDRAL>
7.79554

>  <SCORE.INTRA.DIHEDRAL.0>
15.8713

>  <SCORE.INTRA.POLAR>
0

>  <SCORE.INTRA.POLAR.0>
0

>  <SCORE.INTRA.REPUL>
0

>  <SCORE.INTRA.REPUL.0>
0

>  <SCORE.INTRA.VDW>
-1.13064

>  <SCORE.INTRA.VDW.0>
-0.89017

>  <SCORE.INTRA.norm>
0.0691782

>  <SCORE.RESTR>
1.12562

>  <SCORE.RESTR.CAVITY>
1.12562

>  <SCORE.RESTR.norm>
0.0281405

>  <SCORE.SYSTEM>
-0.73978

>  <SCORE.SYSTEM.CONST>
0

>  <SCORE.SYSTEM.DIHEDRAL>
0.533977

>  <SCORE.SYSTEM.VDW>
-1.00677

>  <SCORE.SYSTEM.norm>
-0.0184945

>  <SCORE.heavy>
40

>  <SCORE.norm>
-0.0972985

$$$$
