64143
  RxDock  02242113073D
librxdock.so/0.1.0
 44 47  0  0  0  0  0  0  0  0999 V2000
  -47.7908   -2.8963   13.6144 S   0  0  0  0  0  0
  -52.9531   -5.4286   17.5539 O   0  0  0  0  0  0
  -47.0632   -3.8870   17.7707 O   0  0  0  0  0  0
  -49.3648   -0.9355   18.4971 O   0  0  0  0  0  0
  -44.5426    1.6433   20.4772 O   0  0  0  0  0  0
  -50.3132   -4.8660   17.0740 N   0  0  0  0  0  0
  -53.0617   -6.3880   15.4357 N   0  0  0  0  0  0
  -47.5277   -1.0753   17.0896 N   0  0  0  0  0  0
  -50.3300   -7.4677   18.5535 C   0  0  0  0  0  0
  -49.6347   -6.2088   19.1031 C   0  0  0  0  0  0
  -50.4318   -7.3984   17.0195 C   0  0  0  0  0  0
  -50.2830   -4.9287   18.5431 C   0  0  0  0  0  0
  -51.6909   -7.7270   19.2224 C   0  0  0  0  0  0
  -49.5969   -6.2092   20.6402 C   0  0  0  0  0  0
  -50.9218   -6.0535   16.4620 C   0  0  0  0  0  0
  -51.5734   -7.7672   20.7432 C   0  0  0  0  0  0
  -50.9518   -6.4855   21.2845 C   0  0  0  0  0  0
  -48.9908   -4.5898   16.5119 C   0  0  0  0  0  0
  -52.4130   -5.9076   16.5603 C   0  0  0  0  0  0
  -48.2938   -3.4170   17.2159 C   0  0  0  0  0  0
  -48.0012   -2.1992   16.3094 C   0  0  0  0  0  0
  -54.4995   -6.3839   15.2904 C   0  0  0  0  0  0
  -46.9858   -2.5604   15.2138 C   0  0  0  0  0  0
  -55.0972   -7.5168   16.1326 C   0  0  0  0  0  0
  -55.0476   -5.0359   15.7703 C   0  0  0  0  0  0
  -54.8603   -6.5954   13.8155 C   0  0  0  0  0  0
  -48.2631   -0.5348   18.1306 C   0  0  0  0  0  0
  -47.6507    0.6327   18.8154 C   0  0  0  0  0  0
  -48.7876   -1.4258   13.4103 C   0  0  0  0  0  0
  -46.3558    0.5719   19.3300 C   0  0  0  0  0  0
  -48.3958    1.8055   18.9386 C   0  0  0  0  0  0
  -48.2166   -0.2623   12.8947 C   0  0  0  0  0  0
  -50.1359   -1.4421   13.7672 C   0  0  0  0  0  0
  -45.8058    1.6838   19.9678 C   0  0  0  0  0  0
  -45.5495   -0.6816   19.2021 C   0  0  0  0  0  0
  -47.8458    2.9174   19.5766 C   0  0  0  0  0  0
  -48.9940    0.8849   12.7358 C   0  0  0  0  0  0
  -50.9132   -0.2947   13.6083 C   0  0  0  0  0  0
  -46.5509    2.8565   20.0913 C   0  0  0  0  0  0
  -50.3423    0.8686   13.0927 C   0  0  0  0  0  0
  -52.5103   -6.6783   14.6341 H   0  0  0  0  0  0
  -46.5438   -4.2709   17.0436 H   0  0  0  0  0  0
  -46.6113   -0.6922   16.8744 H   0  0  0  0  0  0
  -44.4305    0.8208   20.9840 H   0  0  0  0  0  0
  1 23  1  0  0  0
  1 29  1  0  0  0
  2 19  2  0  0  0
  3 20  1  0  0  0
  3 42  1  0  0  0
  4 27  2  0  0  0
  5 34  1  0  0  0
  5 44  1  0  0  0
  6 12  1  0  0  0
  6 15  1  0  0  0
  6 18  1  0  0  0
  7 19  1  0  0  0
  7 22  1  0  0  0
  7 41  1  0  0  0
  8 21  1  0  0  0
  8 27  1  0  0  0
  8 43  1  0  0  0
  9 10  1  0  0  0
  9 11  1  0  0  0
  9 13  1  0  0  0
 10 12  1  0  0  0
 10 14  1  0  0  0
 11 15  1  0  0  0
 13 16  1  0  0  0
 14 17  1  0  0  0
 15 19  1  0  0  0
 16 17  1  0  0  0
 18 20  1  0  0  0
 20 21  1  0  0  0
 21 23  1  0  0  0
 22 24  1  0  0  0
 22 25  1  0  0  0
 22 26  1  0  0  0
 27 28  1  0  0  0
 28 30  2  0  0  0
 28 31  1  0  0  0
 29 32  2  0  0  0
 29 33  1  0  0  0
 30 34  1  0  0  0
 30 35  1  0  0  0
 31 36  2  0  0  0
 32 37  1  0  0  0
 33 38  2  0  0  0
 34 39  2  0  0  0
 36 39  1  0  0  0
 37 40  2  0  0  0
 38 40  1  0  0  0
M  END
>  <CHROM.0>
71.66511057,-177.40628966,-169.65715378

>  <CHROM.1>
52.43900324,82.72185623,56.67768247,-46.54733768,-47.88001620,-76.23420904
-57.42939250,-38.63904796,120.60055117,-66.59004025,-136.44028204,127.58985113
-49.60705248,-3.08551164,17.05315937,0.33721201,-0.87435100,-1.00879409

>  <Name>
64143

>  <PUBCHEM_ATOM_DEF_STEREO_COUNT>
5

>  <PUBCHEM_ATOM_UDEF_STEREO_COUNT>
0

>  <PUBCHEM_BOND_DEF_STEREO_COUNT>
0

>  <PUBCHEM_BOND_UDEF_STEREO_COUNT>
0

>  <PUBCHEM_CACTVS_TAUTO_COUNT>
12

>  <PUBCHEM_COMPONENT_COUNT>
1

>  <PUBCHEM_COMPOUND_CID>
64143

>  <PUBCHEM_CONFORMER_DIVERSEORDER>
1
21
84
153
101
123
82
146
125
17
85
73
20
32
151
113
8
57
53
6
52
117
108
155
94
19
118
148
88
54
130
70
105
150
142
135
56
2
77
61
92
106
139
116
7
51
96
80
93
34
132
115
24
147
122
121
67
36
124
66
145
141
112
44
110
58
104
11
79
149
50
143
60
10
46
100
74
55
129
25
30
131
114
97
47
102
111
140
134
81
16
28
109
144
152
48
86
45
126
39
87
65
29
4
95
156
35
133
27
62
78
49
75
98
99
68
15
63
90
69
107
3
103
64
41
59
76
22
9
136
12
157
33
26
23
119
89
38
71
31
138
154
14
43
127
120
72
128
18
37
42
40
137
83
5
91
13

>  <PUBCHEM_CONFORMER_ID>
0000FA8F00000001

>  <PUBCHEM_CONFORMER_RMSD>
1.4

>  <PUBCHEM_COORDINATE_TYPE>
2
5
10

>  <PUBCHEM_EFFECTIVE_ROTOR_COUNT>
13.6

>  <PUBCHEM_FEATURE_SELFOVERLAP>
66.023

>  <PUBCHEM_HEAVY_ATOM_COUNT>
40

>  <PUBCHEM_ISOTOPIC_ATOM_COUNT>
0

>  <PUBCHEM_MMFF94_ENERGY>
106.283

>  <PUBCHEM_MMFF94_PARTIAL_CHARGES>
42
1 -0.33
12 0.27
15 0.33
18 0.27
19 0.57
2 -0.57
20 0.28
21 0.3
22 0.3
23 0.23
27 0.54
28 0.09
29 0.1
3 -0.68
30 -0.14
31 -0.15
32 -0.15
33 -0.15
34 0.08
35 0.14
36 -0.15
37 -0.15
38 -0.15
39 -0.15
4 -0.57
40 -0.15
5 -0.53
59 0.37
6 -0.81
61 0.4
64 0.37
7 -0.73
74 0.15
75 0.15
76 0.15
8 -0.73
80 0.15
81 0.15
82 0.15
83 0.15
84 0.15
85 0.45

>  <PUBCHEM_PHARMACOPHORE_FEATURES>
13
1 2 acceptor
1 3 acceptor
1 3 donor
1 4 acceptor
1 5 donor
1 6 cation
1 7 donor
1 8 donor
4 22 24 25 26 hydrophobe
6 28 30 31 34 36 39 rings
6 29 32 33 37 38 40 rings
6 6 9 10 11 12 15 rings
6 9 10 13 14 16 17 rings

>  <PUBCHEM_SHAPE_FINGERPRINT>
10032420 55 18130495444200979297
10319688 77 17470141684274524266
10721379 63 18052271596134557976
11421498 54 18270101526886733871
11991303 11 17825385439061262902
13690498 29 17703225234654346413
13911987 19 18189607414530907799
15064981 113 18187641419363593252
15439362 3 18118695322292951744
19319366 153 18342181024936020931
19958102 18 18337956809306142254
20505436 4 17987259766991243505
22393880 68 17989485238265708768
23559900 14 17977103453547379345
340366 18 17766549158792973763
4409770 3 18048885387894744490
504843 32 17969224610910731106
563151 97 18410570691006883420
6058803 2 18127403450458884667
6691757 9 18267867358440949680

>  <PUBCHEM_SHAPE_MULTIPOLES>
788.61
15.86
8.74
2.82
9.48
18.24
1.5
-18.8
9.61
4.55
-3.03
-1.39
0.57
-6.09

>  <PUBCHEM_SHAPE_SELFOVERLAP>
1639.542

>  <PUBCHEM_SHAPE_VOLUME>
450.8

>  <RI>
-5.49088e+08

>  <Rbt.Current_Directory>
/root/miniconda3/envs/rdock/share/rxdock-2013.1.1_148c5bd1-0/data/ligands/prepped_ligands/Nelfinavir

>  <Rbt.Executable>
rbdock/0.1.0

>  <Rbt.Library>
librxdock.so/0.1.0

>  <Rbt.Parameter_File>
/root/miniconda3/envs/rdock/share/rxdock-2013.1.1_148c5bd1-0/data/scripts/dock.prm

>  <Rbt.Receptor>
def.prm

>  <SCORE>
-4.56725

>  <SCORE.INTER>
-11.1696

>  <SCORE.INTER.CONST>
1

>  <SCORE.INTER.POLAR>
-0.427137

>  <SCORE.INTER.REPUL>
0.0173278

>  <SCORE.INTER.ROT>
10

>  <SCORE.INTER.VDW>
-25.204

>  <SCORE.INTER.norm>
-0.279241

>  <SCORE.INTRA>
7.30905

>  <SCORE.INTRA.DIHEDRAL>
11.1732

>  <SCORE.INTRA.DIHEDRAL.0>
15.8713

>  <SCORE.INTRA.POLAR>
0

>  <SCORE.INTRA.POLAR.0>
0

>  <SCORE.INTRA.REPUL>
0

>  <SCORE.INTRA.REPUL.0>
0

>  <SCORE.INTRA.VDW>
1.72246

>  <SCORE.INTRA.VDW.0>
-0.89017

>  <SCORE.INTRA.norm>
0.182726

>  <SCORE.RESTR>
0.00016506

>  <SCORE.RESTR.CAVITY>
0.00016506

>  <SCORE.RESTR.norm>
4.1265e-06

>  <SCORE.SYSTEM>
-0.706838

>  <SCORE.SYSTEM.CONST>
0

>  <SCORE.SYSTEM.DIHEDRAL>
0.600194

>  <SCORE.SYSTEM.POLAR>
-0.0182402

>  <SCORE.SYSTEM.VDW>
-0.944918

>  <SCORE.SYSTEM.norm>
-0.017671

>  <SCORE.heavy>
40

>  <SCORE.norm>
-0.114181

$$$$
64143
  RxDock  02242113083D
librxdock.so/0.1.0
 44 47  0  0  0  0  0  0  0  0999 V2000
  -49.6950   -5.7164   20.8420 S   0  0  0  0  0  0
  -47.8365   -0.6322   17.7720 O   0  0  0  0  0  0
  -50.1059   -3.1220   19.7988 O   0  0  0  0  0  0
  -51.2290   -7.1130   17.9646 O   0  0  0  0  0  0
  -54.8284   -5.8725   13.5900 O   0  0  0  0  0  0
  -49.8857   -2.2097   17.2975 N   0  0  0  0  0  0
  -46.2462   -2.2931   17.4103 N   0  0  0  0  0  0
  -52.6708   -5.3441   18.3742 N   0  0  0  0  0  0
  -48.8354   -2.3266   14.4972 C   0  0  0  0  0  0
  -50.2482   -1.8126   14.8294 C   0  0  0  0  0  0
  -48.3389   -3.2811   15.5975 C   0  0  0  0  0  0
  -50.3117   -1.2544   16.2635 C   0  0  0  0  0  0
  -47.8444   -1.1834   14.2187 C   0  0  0  0  0  0
  -50.7357   -0.7882   13.7914 C   0  0  0  0  0  0
  -48.5613   -2.7861   17.0346 C   0  0  0  0  0  0
  -48.3654   -0.2345   13.1435 C   0  0  0  0  0  0
  -49.7321    0.3273   13.5160 C   0  0  0  0  0  0
  -50.8887   -3.2501   17.5261 C   0  0  0  0  0  0
  -47.5304   -1.7782   17.4539 C   0  0  0  0  0  0
  -50.6348   -4.0262   18.8262 C   0  0  0  0  0  0
  -51.8812   -4.7242   19.4175 C   0  0  0  0  0  0
  -45.0725   -1.5192   17.7446 C   0  0  0  0  0  0
  -51.4794   -5.7619   20.4776 C   0  0  0  0  0  0
  -43.8284   -2.4064   17.6215 C   0  0  0  0  0  0
  -44.9622   -0.3343   16.7792 C   0  0  0  0  0  0
  -45.1968   -1.0060   19.1838 C   0  0  0  0  0  0
  -52.2682   -6.5017   17.7303 C   0  0  0  0  0  0
  -53.1769   -6.9967   16.6645 C   0  0  0  0  0  0
  -49.0362   -6.6654   19.4771 C   0  0  0  0  0  0
  -53.5748   -6.1718   15.6125 C   0  0  0  0  0  0
  -53.6330   -8.3134   16.7291 C   0  0  0  0  0  0
  -48.5976   -6.0156   18.3234 C   0  0  0  0  0  0
  -48.9615   -8.0553   19.5659 C   0  0  0  0  0  0
  -54.4285   -6.6634   14.6251 C   0  0  0  0  0  0
  -53.0905   -4.7586   15.5352 C   0  0  0  0  0  0
  -54.4868   -8.8050   15.7417 C   0  0  0  0  0  0
  -48.0841   -6.7558   17.2585 C   0  0  0  0  0  0
  -48.4478   -8.7955   18.5009 C   0  0  0  0  0  0
  -54.8848   -7.9800   14.6898 C   0  0  0  0  0  0
  -48.0093   -8.1458   17.3473 C   0  0  0  0  0  0
  -46.1172   -3.2823   17.2208 H   0  0  0  0  0  0
  -49.2437   -2.8137   19.4713 H   0  0  0  0  0  0
  -53.5622   -4.9214   18.1300 H   0  0  0  0  0  0
  -54.9720   -4.9682   13.9180 H   0  0  0  0  0  0
  1 23  1  0  0  0
  1 29  1  0  0  0
  2 19  2  0  0  0
  3 20  1  0  0  0
  3 42  1  0  0  0
  4 27  2  0  0  0
  5 34  1  0  0  0
  5 44  1  0  0  0
  6 12  1  0  0  0
  6 15  1  0  0  0
  6 18  1  0  0  0
  7 19  1  0  0  0
  7 22  1  0  0  0
  7 41  1  0  0  0
  8 21  1  0  0  0
  8 27  1  0  0  0
  8 43  1  0  0  0
  9 10  1  0  0  0
  9 11  1  0  0  0
  9 13  1  0  0  0
 10 12  1  0  0  0
 10 14  1  0  0  0
 11 15  1  0  0  0
 13 16  1  0  0  0
 14 17  1  0  0  0
 15 19  1  0  0  0
 16 17  1  0  0  0
 18 20  1  0  0  0
 20 21  1  0  0  0
 21 23  1  0  0  0
 22 24  1  0  0  0
 22 25  1  0  0  0
 22 26  1  0  0  0
 27 28  1  0  0  0
 28 30  2  0  0  0
 28 31  1  0  0  0
 29 32  2  0  0  0
 29 33  1  0  0  0
 30 34  1  0  0  0
 30 35  1  0  0  0
 31 36  2  0  0  0
 32 37  1  0  0  0
 33 38  2  0  0  0
 34 39  2  0  0  0
 36 39  1  0  0  0
 37 40  2  0  0  0
 38 40  1  0  0  0
M  END
>  <CHROM.0>
-175.70120572,-174.34970075,-176.55806469

>  <CHROM.1>
-80.79039298,93.82791935,-64.19533326,-37.50041057,-165.21839109,178.63793507
73.37626846,-8.94272932,35.19256783,163.49018521,129.93432913,-124.83975214
-49.90214033,-4.24080372,17.09462198,-2.60084656,-0.56420879,-0.74525259

>  <Name>
64143

>  <PUBCHEM_ATOM_DEF_STEREO_COUNT>
5

>  <PUBCHEM_ATOM_UDEF_STEREO_COUNT>
0

>  <PUBCHEM_BOND_DEF_STEREO_COUNT>
0

>  <PUBCHEM_BOND_UDEF_STEREO_COUNT>
0

>  <PUBCHEM_CACTVS_TAUTO_COUNT>
12

>  <PUBCHEM_COMPONENT_COUNT>
1

>  <PUBCHEM_COMPOUND_CID>
64143

>  <PUBCHEM_CONFORMER_DIVERSEORDER>
1
21
84
153
101
123
82
146
125
17
85
73
20
32
151
113
8
57
53
6
52
117
108
155
94
19
118
148
88
54
130
70
105
150
142
135
56
2
77
61
92
106
139
116
7
51
96
80
93
34
132
115
24
147
122
121
67
36
124
66
145
141
112
44
110
58
104
11
79
149
50
143
60
10
46
100
74
55
129
25
30
131
114
97
47
102
111
140
134
81
16
28
109
144
152
48
86
45
126
39
87
65
29
4
95
156
35
133
27
62
78
49
75
98
99
68
15
63
90
69
107
3
103
64
41
59
76
22
9
136
12
157
33
26
23
119
89
38
71
31
138
154
14
43
127
120
72
128
18
37
42
40
137
83
5
91
13

>  <PUBCHEM_CONFORMER_ID>
0000FA8F00000001

>  <PUBCHEM_CONFORMER_RMSD>
1.4

>  <PUBCHEM_COORDINATE_TYPE>
2
5
10

>  <PUBCHEM_EFFECTIVE_ROTOR_COUNT>
13.6

>  <PUBCHEM_FEATURE_SELFOVERLAP>
66.023

>  <PUBCHEM_HEAVY_ATOM_COUNT>
40

>  <PUBCHEM_ISOTOPIC_ATOM_COUNT>
0

>  <PUBCHEM_MMFF94_ENERGY>
106.283

>  <PUBCHEM_MMFF94_PARTIAL_CHARGES>
42
1 -0.33
12 0.27
15 0.33
18 0.27
19 0.57
2 -0.57
20 0.28
21 0.3
22 0.3
23 0.23
27 0.54
28 0.09
29 0.1
3 -0.68
30 -0.14
31 -0.15
32 -0.15
33 -0.15
34 0.08
35 0.14
36 -0.15
37 -0.15
38 -0.15
39 -0.15
4 -0.57
40 -0.15
5 -0.53
59 0.37
6 -0.81
61 0.4
64 0.37
7 -0.73
74 0.15
75 0.15
76 0.15
8 -0.73
80 0.15
81 0.15
82 0.15
83 0.15
84 0.15
85 0.45

>  <PUBCHEM_PHARMACOPHORE_FEATURES>
13
1 2 acceptor
1 3 acceptor
1 3 donor
1 4 acceptor
1 5 donor
1 6 cation
1 7 donor
1 8 donor
4 22 24 25 26 hydrophobe
6 28 30 31 34 36 39 rings
6 29 32 33 37 38 40 rings
6 6 9 10 11 12 15 rings
6 9 10 13 14 16 17 rings

>  <PUBCHEM_SHAPE_FINGERPRINT>
10032420 55 18130495444200979297
10319688 77 17470141684274524266
10721379 63 18052271596134557976
11421498 54 18270101526886733871
11991303 11 17825385439061262902
13690498 29 17703225234654346413
13911987 19 18189607414530907799
15064981 113 18187641419363593252
15439362 3 18118695322292951744
19319366 153 18342181024936020931
19958102 18 18337956809306142254
20505436 4 17987259766991243505
22393880 68 17989485238265708768
23559900 14 17977103453547379345
340366 18 17766549158792973763
4409770 3 18048885387894744490
504843 32 17969224610910731106
563151 97 18410570691006883420
6058803 2 18127403450458884667
6691757 9 18267867358440949680

>  <PUBCHEM_SHAPE_MULTIPOLES>
788.61
15.86
8.74
2.82
9.48
18.24
1.5
-18.8
9.61
4.55
-3.03
-1.39
0.57
-6.09

>  <PUBCHEM_SHAPE_SELFOVERLAP>
1639.542

>  <PUBCHEM_SHAPE_VOLUME>
450.8

>  <RI>
-5.49088e+08

>  <Rbt.Current_Directory>
/root/miniconda3/envs/rdock/share/rxdock-2013.1.1_148c5bd1-0/data/ligands/prepped_ligands/Nelfinavir

>  <Rbt.Executable>
rbdock/0.1.0

>  <Rbt.Library>
librxdock.so/0.1.0

>  <Rbt.Parameter_File>
/root/miniconda3/envs/rdock/share/rxdock-2013.1.1_148c5bd1-0/data/scripts/dock.prm

>  <Rbt.Receptor>
def.prm

>  <SCORE>
-11.6188

>  <SCORE.INTER>
-15.853

>  <SCORE.INTER.CONST>
1

>  <SCORE.INTER.POLAR>
0

>  <SCORE.INTER.REPUL>
0.0237847

>  <SCORE.INTER.ROT>
10

>  <SCORE.INTER.VDW>
-31.3719

>  <SCORE.INTER.norm>
-0.396324

>  <SCORE.INTRA>
5.21578

>  <SCORE.INTRA.DIHEDRAL>
8.45604

>  <SCORE.INTRA.DIHEDRAL.0>
15.8713

>  <SCORE.INTRA.POLAR>
0

>  <SCORE.INTRA.POLAR.0>
0

>  <SCORE.INTRA.REPUL>
0

>  <SCORE.INTRA.REPUL.0>
0

>  <SCORE.INTRA.VDW>
0.987763

>  <SCORE.INTRA.VDW.0>
-0.89017

>  <SCORE.INTRA.norm>
0.130395

>  <SCORE.RESTR>
0.00453002

>  <SCORE.RESTR.CAVITY>
0.00453002

>  <SCORE.RESTR.norm>
0.000113251

>  <SCORE.SYSTEM>
-0.986129

>  <SCORE.SYSTEM.CONST>
0

>  <SCORE.SYSTEM.DIHEDRAL>
0.225213

>  <SCORE.SYSTEM.POLAR>
-0.00951369

>  <SCORE.SYSTEM.VDW>
-1.06639

>  <SCORE.SYSTEM.norm>
-0.0246532

>  <SCORE.heavy>
40

>  <SCORE.norm>
-0.29047

$$$$
64143
  RxDock  02242113083D
librxdock.so/0.1.0
 44 47  0  0  0  0  0  0  0  0999 V2000
  -47.5691    2.3712   19.2176 S   0  0  0  0  0  0
  -49.8624   -5.4525   18.7994 O   0  0  0  0  0  0
  -48.6877   -2.2275   21.0581 O   0  0  0  0  0  0
  -46.9019   -1.5132   17.7938 O   0  0  0  0  0  0
  -47.9135   -3.0159   12.9995 O   0  0  0  0  0  0
  -50.4826   -2.9069   19.2476 N   0  0  0  0  0  0
  -51.4085   -6.2230   20.3597 N   0  0  0  0  0  0
  -48.8283   -0.3465   18.3442 N   0  0  0  0  0  0
  -52.8190   -3.6648   17.5372 C   0  0  0  0  0  0
  -51.8265   -2.5578   17.1374 C   0  0  0  0  0  0
  -52.8292   -3.8505   19.0648 C   0  0  0  0  0  0
  -50.4471   -2.7912   17.7818 C   0  0  0  0  0  0
  -52.5636   -4.9826   16.7859 C   0  0  0  0  0  0
  -51.7300   -2.4095   15.6100 C   0  0  0  0  0  0
  -51.4412   -3.9135   19.7200 C   0  0  0  0  0  0
  -52.5323   -4.7736   15.2748 C   0  0  0  0  0  0
  -51.4944   -3.7292   14.8818 C   0  0  0  0  0  0
  -50.7017   -1.6119   19.8924 C   0  0  0  0  0  0
  -50.8020   -5.2636   19.5674 C   0  0  0  0  0  0
  -49.4450   -1.1007   20.6108 C   0  0  0  0  0  0
  -48.5330   -0.1933   19.7533 C   0  0  0  0  0  0
  -50.9961   -7.6079   20.3796 C   0  0  0  0  0  0
  -48.6679    1.2783   20.1752 C   0  0  0  0  0  0
  -51.2088   -8.2199   18.9903 C   0  0  0  0  0  0
  -49.5132   -7.6834   20.7582 C   0  0  0  0  0  0
  -51.8346   -8.3716   21.4110 C   0  0  0  0  0  0
  -47.9731   -1.0032   17.4759 C   0  0  0  0  0  0
  -48.4074   -1.0520   16.0561 C   0  0  0  0  0  0
  -45.9666    1.6758   19.5997 C   0  0  0  0  0  0
  -47.9370   -2.0385   15.1895 C   0  0  0  0  0  0
  -49.3029   -0.0873   15.5945 C   0  0  0  0  0  0
  -45.2446    2.1483   20.6957 C   0  0  0  0  0  0
  -45.4383    0.6613   18.8015 C   0  0  0  0  0  0
  -48.3622   -2.0604   13.8612 C   0  0  0  0  0  0
  -46.9767   -3.0770   15.6760 C   0  0  0  0  0  0
  -49.7281   -0.1093   14.2661 C   0  0  0  0  0  0
  -43.9945    1.6062   20.9935 C   0  0  0  0  0  0
  -44.1880    0.1191   19.0995 C   0  0  0  0  0  0
  -49.2576   -1.0956   13.3994 C   0  0  0  0  0  0
  -43.4661    0.5916   20.1953 C   0  0  0  0  0  0
  -52.1188   -5.9357   21.0261 H   0  0  0  0  0  0
  -47.8838   -1.8866   21.4862 H   0  0  0  0  0  0
  -49.7082    0.0226   17.9942 H   0  0  0  0  0  0
  -47.9383   -3.8810   13.4432 H   0  0  0  0  0  0
  1 23  1  0  0  0
  1 29  1  0  0  0
  2 19  2  0  0  0
  3 20  1  0  0  0
  3 42  1  0  0  0
  4 27  2  0  0  0
  5 34  1  0  0  0
  5 44  1  0  0  0
  6 12  1  0  0  0
  6 15  1  0  0  0
  6 18  1  0  0  0
  7 19  1  0  0  0
  7 22  1  0  0  0
  7 41  1  0  0  0
  8 21  1  0  0  0
  8 27  1  0  0  0
  8 43  1  0  0  0
  9 10  1  0  0  0
  9 11  1  0  0  0
  9 13  1  0  0  0
 10 12  1  0  0  0
 10 14  1  0  0  0
 11 15  1  0  0  0
 13 16  1  0  0  0
 14 17  1  0  0  0
 15 19  1  0  0  0
 16 17  1  0  0  0
 18 20  1  0  0  0
 20 21  1  0  0  0
 21 23  1  0  0  0
 22 24  1  0  0  0
 22 25  1  0  0  0
 22 26  1  0  0  0
 27 28  1  0  0  0
 28 30  2  0  0  0
 28 31  1  0  0  0
 29 32  2  0  0  0
 29 33  1  0  0  0
 30 34  1  0  0  0
 30 35  1  0  0  0
 31 36  2  0  0  0
 32 37  1  0  0  0
 33 38  2  0  0  0
 34 39  2  0  0  0
 36 39  1  0  0  0
 37 40  2  0  0  0
 38 40  1  0  0  0
M  END
>  <CHROM.0>
-86.86002715,60.54805865,-68.23914559

>  <CHROM.1>
-59.13545011,-90.33593642,178.32717143,44.34620643,-108.97228747,-62.72535359
-107.91692714,-20.69546482,-30.10229590,103.98479917,-58.18550944,24.22172803
-49.16531566,-2.29511287,18.15306908,-0.23622877,0.89374381,1.92135274

>  <Name>
64143

>  <PUBCHEM_ATOM_DEF_STEREO_COUNT>
5

>  <PUBCHEM_ATOM_UDEF_STEREO_COUNT>
0

>  <PUBCHEM_BOND_DEF_STEREO_COUNT>
0

>  <PUBCHEM_BOND_UDEF_STEREO_COUNT>
0

>  <PUBCHEM_CACTVS_TAUTO_COUNT>
12

>  <PUBCHEM_COMPONENT_COUNT>
1

>  <PUBCHEM_COMPOUND_CID>
64143

>  <PUBCHEM_CONFORMER_DIVERSEORDER>
1
21
84
153
101
123
82
146
125
17
85
73
20
32
151
113
8
57
53
6
52
117
108
155
94
19
118
148
88
54
130
70
105
150
142
135
56
2
77
61
92
106
139
116
7
51
96
80
93
34
132
115
24
147
122
121
67
36
124
66
145
141
112
44
110
58
104
11
79
149
50
143
60
10
46
100
74
55
129
25
30
131
114
97
47
102
111
140
134
81
16
28
109
144
152
48
86
45
126
39
87
65
29
4
95
156
35
133
27
62
78
49
75
98
99
68
15
63
90
69
107
3
103
64
41
59
76
22
9
136
12
157
33
26
23
119
89
38
71
31
138
154
14
43
127
120
72
128
18
37
42
40
137
83
5
91
13

>  <PUBCHEM_CONFORMER_ID>
0000FA8F00000001

>  <PUBCHEM_CONFORMER_RMSD>
1.4

>  <PUBCHEM_COORDINATE_TYPE>
2
5
10

>  <PUBCHEM_EFFECTIVE_ROTOR_COUNT>
13.6

>  <PUBCHEM_FEATURE_SELFOVERLAP>
66.023

>  <PUBCHEM_HEAVY_ATOM_COUNT>
40

>  <PUBCHEM_ISOTOPIC_ATOM_COUNT>
0

>  <PUBCHEM_MMFF94_ENERGY>
106.283

>  <PUBCHEM_MMFF94_PARTIAL_CHARGES>
42
1 -0.33
12 0.27
15 0.33
18 0.27
19 0.57
2 -0.57
20 0.28
21 0.3
22 0.3
23 0.23
27 0.54
28 0.09
29 0.1
3 -0.68
30 -0.14
31 -0.15
32 -0.15
33 -0.15
34 0.08
35 0.14
36 -0.15
37 -0.15
38 -0.15
39 -0.15
4 -0.57
40 -0.15
5 -0.53
59 0.37
6 -0.81
61 0.4
64 0.37
7 -0.73
74 0.15
75 0.15
76 0.15
8 -0.73
80 0.15
81 0.15
82 0.15
83 0.15
84 0.15
85 0.45

>  <PUBCHEM_PHARMACOPHORE_FEATURES>
13
1 2 acceptor
1 3 acceptor
1 3 donor
1 4 acceptor
1 5 donor
1 6 cation
1 7 donor
1 8 donor
4 22 24 25 26 hydrophobe
6 28 30 31 34 36 39 rings
6 29 32 33 37 38 40 rings
6 6 9 10 11 12 15 rings
6 9 10 13 14 16 17 rings

>  <PUBCHEM_SHAPE_FINGERPRINT>
10032420 55 18130495444200979297
10319688 77 17470141684274524266
10721379 63 18052271596134557976
11421498 54 18270101526886733871
11991303 11 17825385439061262902
13690498 29 17703225234654346413
13911987 19 18189607414530907799
15064981 113 18187641419363593252
15439362 3 18118695322292951744
19319366 153 18342181024936020931
19958102 18 18337956809306142254
20505436 4 17987259766991243505
22393880 68 17989485238265708768
23559900 14 17977103453547379345
340366 18 17766549158792973763
4409770 3 18048885387894744490
504843 32 17969224610910731106
563151 97 18410570691006883420
6058803 2 18127403450458884667
6691757 9 18267867358440949680

>  <PUBCHEM_SHAPE_MULTIPOLES>
788.61
15.86
8.74
2.82
9.48
18.24
1.5
-18.8
9.61
4.55
-3.03
-1.39
0.57
-6.09

>  <PUBCHEM_SHAPE_SELFOVERLAP>
1639.542

>  <PUBCHEM_SHAPE_VOLUME>
450.8

>  <RI>
-5.49088e+08

>  <Rbt.Current_Directory>
/root/miniconda3/envs/rdock/share/rxdock-2013.1.1_148c5bd1-0/data/ligands/prepped_ligands/Nelfinavir

>  <Rbt.Executable>
rbdock/0.1.0

>  <Rbt.Library>
librxdock.so/0.1.0

>  <Rbt.Parameter_File>
/root/miniconda3/envs/rdock/share/rxdock-2013.1.1_148c5bd1-0/data/scripts/dock.prm

>  <Rbt.Receptor>
def.prm

>  <SCORE>
-10.285

>  <SCORE.INTER>
-10.2157

>  <SCORE.INTER.CONST>
1

>  <SCORE.INTER.POLAR>
-0.938321

>  <SCORE.INTER.REPUL>
0.0630623

>  <SCORE.INTER.ROT>
10

>  <SCORE.INTER.VDW>
-22.7407

>  <SCORE.INTER.norm>
-0.255392

>  <SCORE.INTRA>
-0.143231

>  <SCORE.INTRA.DIHEDRAL>
3.41289

>  <SCORE.INTRA.DIHEDRAL.0>
15.8713

>  <SCORE.INTRA.POLAR>
0

>  <SCORE.INTRA.POLAR.0>
0

>  <SCORE.INTRA.REPUL>
0

>  <SCORE.INTRA.REPUL.0>
0

>  <SCORE.INTRA.VDW>
-1.84968

>  <SCORE.INTRA.VDW.0>
-0.89017

>  <SCORE.INTRA.norm>
-0.00358077

>  <SCORE.RESTR>
0.000105179

>  <SCORE.RESTR.CAVITY>
0.000105179

>  <SCORE.RESTR.norm>
2.62947e-06

>  <SCORE.SYSTEM>
0.0737832

>  <SCORE.SYSTEM.CONST>
0

>  <SCORE.SYSTEM.DIHEDRAL>
1.69235

>  <SCORE.SYSTEM.VDW>
-0.772391

>  <SCORE.SYSTEM.norm>
0.00184458

>  <SCORE.heavy>
40

>  <SCORE.norm>
-0.257126

$$$$
64143
  RxDock  02242113083D
librxdock.so/0.1.0
 44 47  0  0  0  0  0  0  0  0999 V2000
  -46.6893   -0.3040   14.2962 S   0  0  0  0  0  0
  -50.8763   -6.0987   19.4624 O   0  0  0  0  0  0
  -46.8657   -3.5163   17.1062 O   0  0  0  0  0  0
  -44.9902   -2.3301   18.4106 O   0  0  0  0  0  0
  -41.5033    0.5154   21.1481 O   0  0  0  0  0  0
  -49.6010   -4.1099   16.8933 N   0  0  0  0  0  0
  -48.8757   -6.2034   18.2768 N   0  0  0  0  0  0
  -46.4168   -0.5382   18.0508 N   0  0  0  0  0  0
  -52.5626   -4.0598   17.3234 C   0  0  0  0  0  0
  -51.9273   -3.9146   15.9285 C   0  0  0  0  0  0
  -51.5702   -3.6190   18.4138 C   0  0  0  0  0  0
  -50.5459   -4.5938   15.8753 C   0  0  0  0  0  0
  -53.1202   -5.4719   17.5713 C   0  0  0  0  0  0
  -52.8646   -4.4302   14.8240 C   0  0  0  0  0  0
  -50.1452   -4.1706   18.2555 C   0  0  0  0  0  0
  -54.0822   -5.9004   16.4672 C   0  0  0  0  0  0
  -53.4209   -5.8243   15.0964 C   0  0  0  0  0  0
  -49.0936   -2.7747   16.5764 C   0  0  0  0  0  0
  -50.0292   -5.5892   18.7335 C   0  0  0  0  0  0
  -47.7948   -2.4531   17.3292 C   0  0  0  0  0  0
  -47.1296   -1.1155   16.9306 C   0  0  0  0  0  0
  -48.5172   -7.5622   18.6135 C   0  0  0  0  0  0
  -46.1865   -1.3058   15.7322 C   0  0  0  0  0  0
  -47.1327   -7.8788   18.0367 C   0  0  0  0  0  0
  -48.4901   -7.7098   20.1385 C   0  0  0  0  0  0
  -49.5534   -8.5222   18.0177 C   0  0  0  0  0  0
  -45.3943   -1.2073   18.7015 C   0  0  0  0  0  0
  -44.7813   -0.4900   19.8489 C   0  0  0  0  0  0
  -48.2761   -1.0291   13.9037 C   0  0  0  0  0  0
  -43.3992   -0.3295   19.9466 C   0  0  0  0  0  0
  -45.6153    0.0281   20.8398 C   0  0  0  0  0  0
  -49.4474   -0.3042   14.1229 C   0  0  0  0  0  0
  -48.3425   -2.3198   13.3791 C   0  0  0  0  0  0
  -42.8510    0.3490   21.0350 C   0  0  0  0  0  0
  -42.4974   -0.8816   18.8886 C   0  0  0  0  0  0
  -45.0670    0.7066   21.9283 C   0  0  0  0  0  0
  -50.6852   -0.8699   13.8171 C   0  0  0  0  0  0
  -49.5804   -2.8854   13.0733 C   0  0  0  0  0  0
  -43.6850    0.8670   22.0260 C   0  0  0  0  0  0
  -50.7517   -2.1606   13.2924 C   0  0  0  0  0  0
  -48.2911   -5.7173   17.6038 H   0  0  0  0  0  0
  -46.0466   -3.2912   17.5796 H   0  0  0  0  0  0
  -46.6660    0.4015   18.3469 H   0  0  0  0  0  0
  -41.2980    0.8514   22.0374 H   0  0  0  0  0  0
  1 23  1  0  0  0
  1 29  1  0  0  0
  2 19  2  0  0  0
  3 20  1  0  0  0
  3 42  1  0  0  0
  4 27  2  0  0  0
  5 34  1  0  0  0
  5 44  1  0  0  0
  6 12  1  0  0  0
  6 15  1  0  0  0
  6 18  1  0  0  0
  7 19  1  0  0  0
  7 22  1  0  0  0
  7 41  1  0  0  0
  8 21  1  0  0  0
  8 27  1  0  0  0
  8 43  1  0  0  0
  9 10  1  0  0  0
  9 11  1  0  0  0
  9 13  1  0  0  0
 10 12  1  0  0  0
 10 14  1  0  0  0
 11 15  1  0  0  0
 13 16  1  0  0  0
 14 17  1  0  0  0
 15 19  1  0  0  0
 16 17  1  0  0  0
 18 20  1  0  0  0
 20 21  1  0  0  0
 21 23  1  0  0  0
 22 24  1  0  0  0
 22 25  1  0  0  0
 22 26  1  0  0  0
 27 28  1  0  0  0
 28 30  2  0  0  0
 28 31  1  0  0  0
 29 32  2  0  0  0
 29 33  1  0  0  0
 30 34  1  0  0  0
 30 35  1  0  0  0
 31 36  2  0  0  0
 32 37  1  0  0  0
 33 38  2  0  0  0
 34 39  2  0  0  0
 36 39  1  0  0  0
 37 40  2  0  0  0
 38 40  1  0  0  0
M  END
>  <CHROM.0>
53.95468852,59.30353123,55.31864990

>  <CHROM.1>
-64.10231285,110.41460283,179.28401908,-169.18178255,-160.70976573,-175.41624123
58.48904586,-144.94792574,52.05501084,-88.80752025,-117.03840832,52.16660413
-48.19213136,-2.97533065,17.38372436,0.09693420,-0.66731613,-0.81940611

>  <Name>
64143

>  <PUBCHEM_ATOM_DEF_STEREO_COUNT>
5

>  <PUBCHEM_ATOM_UDEF_STEREO_COUNT>
0

>  <PUBCHEM_BOND_DEF_STEREO_COUNT>
0

>  <PUBCHEM_BOND_UDEF_STEREO_COUNT>
0

>  <PUBCHEM_CACTVS_TAUTO_COUNT>
12

>  <PUBCHEM_COMPONENT_COUNT>
1

>  <PUBCHEM_COMPOUND_CID>
64143

>  <PUBCHEM_CONFORMER_DIVERSEORDER>
1
21
84
153
101
123
82
146
125
17
85
73
20
32
151
113
8
57
53
6
52
117
108
155
94
19
118
148
88
54
130
70
105
150
142
135
56
2
77
61
92
106
139
116
7
51
96
80
93
34
132
115
24
147
122
121
67
36
124
66
145
141
112
44
110
58
104
11
79
149
50
143
60
10
46
100
74
55
129
25
30
131
114
97
47
102
111
140
134
81
16
28
109
144
152
48
86
45
126
39
87
65
29
4
95
156
35
133
27
62
78
49
75
98
99
68
15
63
90
69
107
3
103
64
41
59
76
22
9
136
12
157
33
26
23
119
89
38
71
31
138
154
14
43
127
120
72
128
18
37
42
40
137
83
5
91
13

>  <PUBCHEM_CONFORMER_ID>
0000FA8F00000001

>  <PUBCHEM_CONFORMER_RMSD>
1.4

>  <PUBCHEM_COORDINATE_TYPE>
2
5
10

>  <PUBCHEM_EFFECTIVE_ROTOR_COUNT>
13.6

>  <PUBCHEM_FEATURE_SELFOVERLAP>
66.023

>  <PUBCHEM_HEAVY_ATOM_COUNT>
40

>  <PUBCHEM_ISOTOPIC_ATOM_COUNT>
0

>  <PUBCHEM_MMFF94_ENERGY>
106.283

>  <PUBCHEM_MMFF94_PARTIAL_CHARGES>
42
1 -0.33
12 0.27
15 0.33
18 0.27
19 0.57
2 -0.57
20 0.28
21 0.3
22 0.3
23 0.23
27 0.54
28 0.09
29 0.1
3 -0.68
30 -0.14
31 -0.15
32 -0.15
33 -0.15
34 0.08
35 0.14
36 -0.15
37 -0.15
38 -0.15
39 -0.15
4 -0.57
40 -0.15
5 -0.53
59 0.37
6 -0.81
61 0.4
64 0.37
7 -0.73
74 0.15
75 0.15
76 0.15
8 -0.73
80 0.15
81 0.15
82 0.15
83 0.15
84 0.15
85 0.45

>  <PUBCHEM_PHARMACOPHORE_FEATURES>
13
1 2 acceptor
1 3 acceptor
1 3 donor
1 4 acceptor
1 5 donor
1 6 cation
1 7 donor
1 8 donor
4 22 24 25 26 hydrophobe
6 28 30 31 34 36 39 rings
6 29 32 33 37 38 40 rings
6 6 9 10 11 12 15 rings
6 9 10 13 14 16 17 rings

>  <PUBCHEM_SHAPE_FINGERPRINT>
10032420 55 18130495444200979297
10319688 77 17470141684274524266
10721379 63 18052271596134557976
11421498 54 18270101526886733871
11991303 11 17825385439061262902
13690498 29 17703225234654346413
13911987 19 18189607414530907799
15064981 113 18187641419363593252
15439362 3 18118695322292951744
19319366 153 18342181024936020931
19958102 18 18337956809306142254
20505436 4 17987259766991243505
22393880 68 17989485238265708768
23559900 14 17977103453547379345
340366 18 17766549158792973763
4409770 3 18048885387894744490
504843 32 17969224610910731106
563151 97 18410570691006883420
6058803 2 18127403450458884667
6691757 9 18267867358440949680

>  <PUBCHEM_SHAPE_MULTIPOLES>
788.61
15.86
8.74
2.82
9.48
18.24
1.5
-18.8
9.61
4.55
-3.03
-1.39
0.57
-6.09

>  <PUBCHEM_SHAPE_SELFOVERLAP>
1639.542

>  <PUBCHEM_SHAPE_VOLUME>
450.8

>  <RI>
-5.49088e+08

>  <Rbt.Current_Directory>
/root/miniconda3/envs/rdock/share/rxdock-2013.1.1_148c5bd1-0/data/ligands/prepped_ligands/Nelfinavir

>  <Rbt.Executable>
rbdock/0.1.0

>  <Rbt.Library>
librxdock.so/0.1.0

>  <Rbt.Parameter_File>
/root/miniconda3/envs/rdock/share/rxdock-2013.1.1_148c5bd1-0/data/scripts/dock.prm

>  <Rbt.Receptor>
def.prm

>  <SCORE>
-15.4981

>  <SCORE.INTER>
-12.5216

>  <SCORE.INTER.CONST>
1

>  <SCORE.INTER.POLAR>
0

>  <SCORE.INTER.REPUL>
0.0344947

>  <SCORE.INTER.ROT>
10

>  <SCORE.INTER.VDW>
-28.094

>  <SCORE.INTER.norm>
-0.313039

>  <SCORE.INTRA>
-2.15151

>  <SCORE.INTRA.DIHEDRAL>
6.07042

>  <SCORE.INTRA.DIHEDRAL.0>
15.8713

>  <SCORE.INTRA.POLAR>
-0.92011

>  <SCORE.INTRA.POLAR.0>
0

>  <SCORE.INTRA.REPUL>
0

>  <SCORE.INTRA.REPUL.0>
0

>  <SCORE.INTRA.VDW>
-2.05834

>  <SCORE.INTRA.VDW.0>
-0.89017

>  <SCORE.INTRA.norm>
-0.0537877

>  <SCORE.RESTR>
0.0480809

>  <SCORE.RESTR.CAVITY>
0.0480809

>  <SCORE.RESTR.norm>
0.00120202

>  <SCORE.SYSTEM>
-0.873078

>  <SCORE.SYSTEM.CONST>
0

>  <SCORE.SYSTEM.DIHEDRAL>
0.153987

>  <SCORE.SYSTEM.VDW>
-0.950072

>  <SCORE.SYSTEM.norm>
-0.021827

>  <SCORE.heavy>
40

>  <SCORE.norm>
-0.387452

$$$$
64143
  RxDock  02242113083D
librxdock.so/0.1.0
 44 47  0  0  0  0  0  0  0  0999 V2000
  -45.5984   -0.4347   20.3585 S   0  0  0  0  0  0
  -48.7920   -5.3497   18.3619 O   0  0  0  0  0  0
  -49.1748   -2.4658   21.6636 O   0  0  0  0  0  0
  -47.3969   -3.0846   17.6317 O   0  0  0  0  0  0
  -49.5265   -3.3821   12.9072 O   0  0  0  0  0  0
  -50.2920   -3.3024   19.0221 N   0  0  0  0  0  0
  -49.7543   -6.7985   19.9091 N   0  0  0  0  0  0
  -48.4825   -1.1717   18.3651 N   0  0  0  0  0  0
  -52.7043   -4.9795   18.4505 C   0  0  0  0  0  0
  -52.4448   -3.6366   17.7436 C   0  0  0  0  0  0
  -51.9846   -5.0183   19.8102 C   0  0  0  0  0  0
  -50.9391   -3.3145   17.7014 C   0  0  0  0  0  0
  -52.3539   -6.1874   17.5647 C   0  0  0  0  0  0
  -53.0796   -3.6027   16.3435 C   0  0  0  0  0  0
  -50.5272   -4.5332   19.7870 C   0  0  0  0  0  0
  -53.0571   -6.1180   16.2123 C   0  0  0  0  0  0
  -52.7349   -4.8171   15.4870 C   0  0  0  0  0  0
  -50.6504   -2.1127   19.7948 C   0  0  0  0  0  0
  -49.5876   -5.5831   19.2679 C   0  0  0  0  0  0
  -49.4626   -1.5605   20.5955 C   0  0  0  0  0  0
  -48.1747   -1.3345   19.7705 C   0  0  0  0  0  0
  -48.9873   -7.9780   19.5791 C   0  0  0  0  0  0
  -47.3917   -0.1204   20.2946 C   0  0  0  0  0  0
  -49.4042   -9.1283   20.5026 C   0  0  0  0  0  0
  -49.2586   -8.3597   18.1201 C   0  0  0  0  0  0
  -47.4952   -7.6819   19.7692 C   0  0  0  0  0  0
  -48.0596   -2.0755   17.4054 C   0  0  0  0  0  0
  -48.4345   -1.7523   16.0048 C   0  0  0  0  0  0
  -45.2469   -0.7983   18.6433 C   0  0  0  0  0  0
  -48.8099   -2.7520   15.1075 C   0  0  0  0  0  0
  -48.4067   -0.4199   15.5927 C   0  0  0  0  0  0
  -44.5234   -1.9425   18.3071 C   0  0  0  0  0  0
  -45.6956    0.0624   17.6417 C   0  0  0  0  0  0
  -49.1576   -2.4195   13.7982 C   0  0  0  0  0  0
  -48.8428   -4.1834   15.5408 C   0  0  0  0  0  0
  -48.7542   -0.0874   14.2834 C   0  0  0  0  0  0
  -44.2488   -2.2260   16.9693 C   0  0  0  0  0  0
  -45.4210   -0.2212   16.3038 C   0  0  0  0  0  0
  -49.1295   -1.0871   13.3861 C   0  0  0  0  0  0
  -44.6975   -1.3652   15.9676 C   0  0  0  0  0  0
  -50.3787   -6.8536   20.7079 H   0  0  0  0  0  0
  -48.9808   -3.3321   21.2667 H   0  0  0  0  0  0
  -49.0503   -0.3765   18.0859 H   0  0  0  0  0  0
  -50.2352   -3.9218   13.2976 H   0  0  0  0  0  0
  1 23  1  0  0  0
  1 29  1  0  0  0
  2 19  2  0  0  0
  3 20  1  0  0  0
  3 42  1  0  0  0
  4 27  2  0  0  0
  5 34  1  0  0  0
  5 44  1  0  0  0
  6 12  1  0  0  0
  6 15  1  0  0  0
  6 18  1  0  0  0
  7 19  1  0  0  0
  7 22  1  0  0  0
  7 41  1  0  0  0
  8 21  1  0  0  0
  8 27  1  0  0  0
  8 43  1  0  0  0
  9 10  1  0  0  0
  9 11  1  0  0  0
  9 13  1  0  0  0
 10 12  1  0  0  0
 10 14  1  0  0  0
 11 15  1  0  0  0
 13 16  1  0  0  0
 14 17  1  0  0  0
 15 19  1  0  0  0
 16 17  1  0  0  0
 18 20  1  0  0  0
 20 21  1  0  0  0
 21 23  1  0  0  0
 22 24  1  0  0  0
 22 25  1  0  0  0
 22 26  1  0  0  0
 27 28  1  0  0  0
 28 30  2  0  0  0
 28 31  1  0  0  0
 29 32  2  0  0  0
 29 33  1  0  0  0
 30 34  1  0  0  0
 30 35  1  0  0  0
 31 36  2  0  0  0
 32 37  1  0  0  0
 33 38  2  0  0  0
 34 39  2  0  0  0
 36 39  1  0  0  0
 37 40  2  0  0  0
 38 40  1  0  0  0
M  END
>  <CHROM.0>
70.59035263,-179.46775520,173.68007390

>  <CHROM.1>
59.49265630,-130.01714685,58.39812570,52.39709903,-141.32828737,178.64072373
-115.34369059,0.38715261,-70.71836773,144.97014171,-98.64987317,39.15475353
-48.89793625,-3.31020175,17.86606038,-0.52149503,0.71111414,2.14411640

>  <Name>
64143

>  <PUBCHEM_ATOM_DEF_STEREO_COUNT>
5

>  <PUBCHEM_ATOM_UDEF_STEREO_COUNT>
0

>  <PUBCHEM_BOND_DEF_STEREO_COUNT>
0

>  <PUBCHEM_BOND_UDEF_STEREO_COUNT>
0

>  <PUBCHEM_CACTVS_TAUTO_COUNT>
12

>  <PUBCHEM_COMPONENT_COUNT>
1

>  <PUBCHEM_COMPOUND_CID>
64143

>  <PUBCHEM_CONFORMER_DIVERSEORDER>
1
21
84
153
101
123
82
146
125
17
85
73
20
32
151
113
8
57
53
6
52
117
108
155
94
19
118
148
88
54
130
70
105
150
142
135
56
2
77
61
92
106
139
116
7
51
96
80
93
34
132
115
24
147
122
121
67
36
124
66
145
141
112
44
110
58
104
11
79
149
50
143
60
10
46
100
74
55
129
25
30
131
114
97
47
102
111
140
134
81
16
28
109
144
152
48
86
45
126
39
87
65
29
4
95
156
35
133
27
62
78
49
75
98
99
68
15
63
90
69
107
3
103
64
41
59
76
22
9
136
12
157
33
26
23
119
89
38
71
31
138
154
14
43
127
120
72
128
18
37
42
40
137
83
5
91
13

>  <PUBCHEM_CONFORMER_ID>
0000FA8F00000001

>  <PUBCHEM_CONFORMER_RMSD>
1.4

>  <PUBCHEM_COORDINATE_TYPE>
2
5
10

>  <PUBCHEM_EFFECTIVE_ROTOR_COUNT>
13.6

>  <PUBCHEM_FEATURE_SELFOVERLAP>
66.023

>  <PUBCHEM_HEAVY_ATOM_COUNT>
40

>  <PUBCHEM_ISOTOPIC_ATOM_COUNT>
0

>  <PUBCHEM_MMFF94_ENERGY>
106.283

>  <PUBCHEM_MMFF94_PARTIAL_CHARGES>
42
1 -0.33
12 0.27
15 0.33
18 0.27
19 0.57
2 -0.57
20 0.28
21 0.3
22 0.3
23 0.23
27 0.54
28 0.09
29 0.1
3 -0.68
30 -0.14
31 -0.15
32 -0.15
33 -0.15
34 0.08
35 0.14
36 -0.15
37 -0.15
38 -0.15
39 -0.15
4 -0.57
40 -0.15
5 -0.53
59 0.37
6 -0.81
61 0.4
64 0.37
7 -0.73
74 0.15
75 0.15
76 0.15
8 -0.73
80 0.15
81 0.15
82 0.15
83 0.15
84 0.15
85 0.45

>  <PUBCHEM_PHARMACOPHORE_FEATURES>
13
1 2 acceptor
1 3 acceptor
1 3 donor
1 4 acceptor
1 5 donor
1 6 cation
1 7 donor
1 8 donor
4 22 24 25 26 hydrophobe
6 28 30 31 34 36 39 rings
6 29 32 33 37 38 40 rings
6 6 9 10 11 12 15 rings
6 9 10 13 14 16 17 rings

>  <PUBCHEM_SHAPE_FINGERPRINT>
10032420 55 18130495444200979297
10319688 77 17470141684274524266
10721379 63 18052271596134557976
11421498 54 18270101526886733871
11991303 11 17825385439061262902
13690498 29 17703225234654346413
13911987 19 18189607414530907799
15064981 113 18187641419363593252
15439362 3 18118695322292951744
19319366 153 18342181024936020931
19958102 18 18337956809306142254
20505436 4 17987259766991243505
22393880 68 17989485238265708768
23559900 14 17977103453547379345
340366 18 17766549158792973763
4409770 3 18048885387894744490
504843 32 17969224610910731106
563151 97 18410570691006883420
6058803 2 18127403450458884667
6691757 9 18267867358440949680

>  <PUBCHEM_SHAPE_MULTIPOLES>
788.61
15.86
8.74
2.82
9.48
18.24
1.5
-18.8
9.61
4.55
-3.03
-1.39
0.57
-6.09

>  <PUBCHEM_SHAPE_SELFOVERLAP>
1639.542

>  <PUBCHEM_SHAPE_VOLUME>
450.8

>  <RI>
-5.49088e+08

>  <Rbt.Current_Directory>
/root/miniconda3/envs/rdock/share/rxdock-2013.1.1_148c5bd1-0/data/ligands/prepped_ligands/Nelfinavir

>  <Rbt.Executable>
rbdock/0.1.0

>  <Rbt.Library>
librxdock.so/0.1.0

>  <Rbt.Parameter_File>
/root/miniconda3/envs/rdock/share/rxdock-2013.1.1_148c5bd1-0/data/scripts/dock.prm

>  <Rbt.Receptor>
def.prm

>  <SCORE>
-10.632

>  <SCORE.INTER>
-8.53917

>  <SCORE.INTER.CONST>
1

>  <SCORE.INTER.POLAR>
-0.358934

>  <SCORE.INTER.REPUL>
0

>  <SCORE.INTER.ROT>
10

>  <SCORE.INTER.VDW>
-22.7188

>  <SCORE.INTER.norm>
-0.213479

>  <SCORE.INTRA>
-1.54197

>  <SCORE.INTRA.DIHEDRAL>
6.53485

>  <SCORE.INTRA.DIHEDRAL.0>
15.8713

>  <SCORE.INTRA.POLAR>
0

>  <SCORE.INTRA.POLAR.0>
0

>  <SCORE.INTRA.REPUL>
0

>  <SCORE.INTRA.REPUL.0>
0

>  <SCORE.INTRA.VDW>
-4.80939

>  <SCORE.INTRA.VDW.0>
-0.89017

>  <SCORE.INTRA.norm>
-0.0385491

>  <SCORE.RESTR>
0.308043

>  <SCORE.RESTR.CAVITY>
0.308043

>  <SCORE.RESTR.norm>
0.00770107

>  <SCORE.SYSTEM>
-0.858933

>  <SCORE.SYSTEM.CONST>
0

>  <SCORE.SYSTEM.DIHEDRAL>
0.366577

>  <SCORE.SYSTEM.VDW>
-1.04222

>  <SCORE.SYSTEM.norm>
-0.0214733

>  <SCORE.heavy>
40

>  <SCORE.norm>
-0.265801

$$$$
64143
  RxDock  02242113083D
librxdock.so/0.1.0
 44 47  0  0  0  0  0  0  0  0999 V2000
  -48.7280    0.5696   12.6524 S   0  0  0  0  0  0
  -53.8809   -4.3953   14.9966 O   0  0  0  0  0  0
  -51.2528   -1.6330   13.5866 O   0  0  0  0  0  0
  -47.6098   -0.0843   16.9882 O   0  0  0  0  0  0
  -43.0405   -1.8216   18.6174 O   0  0  0  0  0  0
  -51.3305   -3.7869   15.0589 N   0  0  0  0  0  0
  -53.5287   -6.6961   15.0271 N   0  0  0  0  0  0
  -47.8781   -1.3573   15.0690 N   0  0  0  0  0  0
  -51.0557   -5.4358   17.5416 C   0  0  0  0  0  0
  -50.6677   -3.9467   17.4912 C   0  0  0  0  0  0
  -50.9855   -6.0568   16.1354 C   0  0  0  0  0  0
  -51.4641   -3.2032   16.4024 C   0  0  0  0  0  0
  -52.4175   -5.6658   18.2192 C   0  0  0  0  0  0
  -50.8131   -3.2776   18.8679 C   0  0  0  0  0  0
  -51.6392   -5.2217   15.0240 C   0  0  0  0  0  0
  -52.4760   -5.0217   19.6011 C   0  0  0  0  0  0
  -52.1632   -3.5319   19.5312 C   0  0  0  0  0  0
  -50.0220   -3.5042   14.4685 C   0  0  0  0  0  0
  -53.1333   -5.3697   15.0069 C   0  0  0  0  0  0
  -49.9330   -2.0773   13.9092 C   0  0  0  0  0  0
  -49.2772   -1.0491   14.8594 C   0  0  0  0  0  0
  -54.9138   -7.1080   15.0389 C   0  0  0  0  0  0
  -49.4388    0.3805   14.3190 C   0  0  0  0  0  0
  -55.7105   -6.1803   15.9633 C   0  0  0  0  0  0
  -55.4728   -7.0261   13.6146 C   0  0  0  0  0  0
  -55.0095   -8.5496   15.5518 C   0  0  0  0  0  0
  -47.1573   -0.8394   16.1316 C   0  0  0  0  0  0
  -45.7254   -1.2300   16.1915 C   0  0  0  0  0  0
  -49.4192    2.1419   12.1549 C   0  0  0  0  0  0
  -45.0561   -1.3400   17.4102 C   0  0  0  0  0  0
  -45.0497   -1.4891   14.9989 C   0  0  0  0  0  0
  -48.5791    3.2309   11.9228 C   0  0  0  0  0  0
  -50.7985    2.2795   11.9995 C   0  0  0  0  0  0
  -43.7113   -1.7093   17.4367 C   0  0  0  0  0  0
  -45.7728   -1.0643   18.6939 C   0  0  0  0  0  0
  -43.7048   -1.8583   15.0254 C   0  0  0  0  0  0
  -49.1182    4.4575   11.5351 C   0  0  0  0  0  0
  -51.3376    3.5063   11.6117 C   0  0  0  0  0  0
  -43.0355   -1.9682   16.2441 C   0  0  0  0  0  0
  -50.4976    4.5952   11.3797 C   0  0  0  0  0  0
  -52.8243   -7.4225   14.9416 H   0  0  0  0  0  0
  -51.5822   -2.1975   12.8666 H   0  0  0  0  0  0
  -47.4242   -1.9967   14.4225 H   0  0  0  0  0  0
  -42.1851   -2.2559   18.4570 H   0  0  0  0  0  0
  1 23  1  0  0  0
  1 29  1  0  0  0
  2 19  2  0  0  0
  3 20  1  0  0  0
  3 42  1  0  0  0
  4 27  2  0  0  0
  5 34  1  0  0  0
  5 44  1  0  0  0
  6 12  1  0  0  0
  6 15  1  0  0  0
  6 18  1  0  0  0
  7 19  1  0  0  0
  7 22  1  0  0  0
  7 41  1  0  0  0
  8 21  1  0  0  0
  8 27  1  0  0  0
  8 43  1  0  0  0
  9 10  1  0  0  0
  9 11  1  0  0  0
  9 13  1  0  0  0
 10 12  1  0  0  0
 10 14  1  0  0  0
 11 15  1  0  0  0
 13 16  1  0  0  0
 14 17  1  0  0  0
 15 19  1  0  0  0
 16 17  1  0  0  0
 18 20  1  0  0  0
 20 21  1  0  0  0
 21 23  1  0  0  0
 22 24  1  0  0  0
 22 25  1  0  0  0
 22 26  1  0  0  0
 27 28  1  0  0  0
 28 30  2  0  0  0
 28 31  1  0  0  0
 29 32  2  0  0  0
 29 33  1  0  0  0
 30 34  1  0  0  0
 30 35  1  0  0  0
 31 36  2  0  0  0
 32 37  1  0  0  0
 33 38  2  0  0  0
 34 39  2  0  0  0
 36 39  1  0  0  0
 37 40  2  0  0  0
 38 40  1  0  0  0
M  END
>  <CHROM.0>
64.16768970,67.84622028,-156.85131282

>  <CHROM.1>
166.39722193,115.88372912,-64.85218633,168.61844407,-78.44881768,-40.19161244
-161.91021651,1.38131776,-25.10041316,-172.11735566,65.86007198,31.28838342
-49.84355402,-2.29163630,15.35495361,0.71156983,-0.40560713,-0.65702670

>  <Name>
64143

>  <PUBCHEM_ATOM_DEF_STEREO_COUNT>
5

>  <PUBCHEM_ATOM_UDEF_STEREO_COUNT>
0

>  <PUBCHEM_BOND_DEF_STEREO_COUNT>
0

>  <PUBCHEM_BOND_UDEF_STEREO_COUNT>
0

>  <PUBCHEM_CACTVS_TAUTO_COUNT>
12

>  <PUBCHEM_COMPONENT_COUNT>
1

>  <PUBCHEM_COMPOUND_CID>
64143

>  <PUBCHEM_CONFORMER_DIVERSEORDER>
1
21
84
153
101
123
82
146
125
17
85
73
20
32
151
113
8
57
53
6
52
117
108
155
94
19
118
148
88
54
130
70
105
150
142
135
56
2
77
61
92
106
139
116
7
51
96
80
93
34
132
115
24
147
122
121
67
36
124
66
145
141
112
44
110
58
104
11
79
149
50
143
60
10
46
100
74
55
129
25
30
131
114
97
47
102
111
140
134
81
16
28
109
144
152
48
86
45
126
39
87
65
29
4
95
156
35
133
27
62
78
49
75
98
99
68
15
63
90
69
107
3
103
64
41
59
76
22
9
136
12
157
33
26
23
119
89
38
71
31
138
154
14
43
127
120
72
128
18
37
42
40
137
83
5
91
13

>  <PUBCHEM_CONFORMER_ID>
0000FA8F00000001

>  <PUBCHEM_CONFORMER_RMSD>
1.4

>  <PUBCHEM_COORDINATE_TYPE>
2
5
10

>  <PUBCHEM_EFFECTIVE_ROTOR_COUNT>
13.6

>  <PUBCHEM_FEATURE_SELFOVERLAP>
66.023

>  <PUBCHEM_HEAVY_ATOM_COUNT>
40

>  <PUBCHEM_ISOTOPIC_ATOM_COUNT>
0

>  <PUBCHEM_MMFF94_ENERGY>
106.283

>  <PUBCHEM_MMFF94_PARTIAL_CHARGES>
42
1 -0.33
12 0.27
15 0.33
18 0.27
19 0.57
2 -0.57
20 0.28
21 0.3
22 0.3
23 0.23
27 0.54
28 0.09
29 0.1
3 -0.68
30 -0.14
31 -0.15
32 -0.15
33 -0.15
34 0.08
35 0.14
36 -0.15
37 -0.15
38 -0.15
39 -0.15
4 -0.57
40 -0.15
5 -0.53
59 0.37
6 -0.81
61 0.4
64 0.37
7 -0.73
74 0.15
75 0.15
76 0.15
8 -0.73
80 0.15
81 0.15
82 0.15
83 0.15
84 0.15
85 0.45

>  <PUBCHEM_PHARMACOPHORE_FEATURES>
13
1 2 acceptor
1 3 acceptor
1 3 donor
1 4 acceptor
1 5 donor
1 6 cation
1 7 donor
1 8 donor
4 22 24 25 26 hydrophobe
6 28 30 31 34 36 39 rings
6 29 32 33 37 38 40 rings
6 6 9 10 11 12 15 rings
6 9 10 13 14 16 17 rings

>  <PUBCHEM_SHAPE_FINGERPRINT>
10032420 55 18130495444200979297
10319688 77 17470141684274524266
10721379 63 18052271596134557976
11421498 54 18270101526886733871
11991303 11 17825385439061262902
13690498 29 17703225234654346413
13911987 19 18189607414530907799
15064981 113 18187641419363593252
15439362 3 18118695322292951744
19319366 153 18342181024936020931
19958102 18 18337956809306142254
20505436 4 17987259766991243505
22393880 68 17989485238265708768
23559900 14 17977103453547379345
340366 18 17766549158792973763
4409770 3 18048885387894744490
504843 32 17969224610910731106
563151 97 18410570691006883420
6058803 2 18127403450458884667
6691757 9 18267867358440949680

>  <PUBCHEM_SHAPE_MULTIPOLES>
788.61
15.86
8.74
2.82
9.48
18.24
1.5
-18.8
9.61
4.55
-3.03
-1.39
0.57
-6.09

>  <PUBCHEM_SHAPE_SELFOVERLAP>
1639.542

>  <PUBCHEM_SHAPE_VOLUME>
450.8

>  <RI>
-5.49088e+08

>  <Rbt.Current_Directory>
/root/miniconda3/envs/rdock/share/rxdock-2013.1.1_148c5bd1-0/data/ligands/prepped_ligands/Nelfinavir

>  <Rbt.Executable>
rbdock/0.1.0

>  <Rbt.Library>
librxdock.so/0.1.0

>  <Rbt.Parameter_File>
/root/miniconda3/envs/rdock/share/rxdock-2013.1.1_148c5bd1-0/data/scripts/dock.prm

>  <Rbt.Receptor>
def.prm

>  <SCORE>
-23.8611

>  <SCORE.INTER>
-24.7909

>  <SCORE.INTER.CONST>
1

>  <SCORE.INTER.POLAR>
-1.50704

>  <SCORE.INTER.REPUL>
0.0367086

>  <SCORE.INTER.ROT>
10

>  <SCORE.INTER.VDW>
-35.2505

>  <SCORE.INTER.norm>
-0.619772

>  <SCORE.INTRA>
1.1088

>  <SCORE.INTRA.DIHEDRAL>
-2.23467

>  <SCORE.INTRA.DIHEDRAL.0>
15.8713

>  <SCORE.INTRA.POLAR>
0

>  <SCORE.INTRA.POLAR.0>
0

>  <SCORE.INTRA.REPUL>
0

>  <SCORE.INTRA.REPUL.0>
0

>  <SCORE.INTRA.VDW>
2.22614

>  <SCORE.INTRA.VDW.0>
-0.89017

>  <SCORE.INTRA.norm>
0.0277201

>  <SCORE.RESTR>
0

>  <SCORE.RESTR.CAVITY>
0

>  <SCORE.RESTR.norm>
0

>  <SCORE.SYSTEM>
-0.179085

>  <SCORE.SYSTEM.CONST>
0

>  <SCORE.SYSTEM.DIHEDRAL>
1.49277

>  <SCORE.SYSTEM.POLAR>
-0.0170072

>  <SCORE.SYSTEM.VDW>
-0.867644

>  <SCORE.SYSTEM.norm>
-0.00447713

>  <SCORE.heavy>
40

>  <SCORE.norm>
-0.596529

$$$$
64143
  RxDock  02242113083D
librxdock.so/0.1.0
 44 47  0  0  0  0  0  0  0  0999 V2000
  -49.3098   -5.2114   19.6518 S   0  0  0  0  0  0
  -47.5898   -0.3942   18.1514 O   0  0  0  0  0  0
  -51.6874   -1.7008   20.0737 O   0  0  0  0  0  0
  -51.2038   -5.6730   17.7870 O   0  0  0  0  0  0
  -54.8986   -8.5265   15.3129 O   0  0  0  0  0  0
  -49.7275   -1.8700   17.7809 N   0  0  0  0  0  0
  -46.0920   -2.1457   17.8233 N   0  0  0  0  0  0
  -52.7591   -4.5471   19.0865 N   0  0  0  0  0  0
  -48.6908   -2.4043   15.0244 C   0  0  0  0  0  0
  -50.0677   -1.7646   15.2801 C   0  0  0  0  0  0
  -48.2541   -3.2421   16.2391 C   0  0  0  0  0  0
  -50.0937   -1.0275   16.6323 C   0  0  0  0  0  0
  -47.6298   -1.3699   14.6109 C   0  0  0  0  0  0
  -50.4910   -0.8503   14.1185 C   0  0  0  0  0  0
  -48.4427   -2.5572   17.6012 C   0  0  0  0  0  0
  -48.0914   -0.5329   13.4216 C   0  0  0  0  0  0
  -49.4192    0.1562   13.7117 C   0  0  0  0  0  0
  -50.7941   -2.8081   18.1320 C   0  0  0  0  0  0
  -47.3494   -1.5715   17.8972 C   0  0  0  0  0  0
  -51.0192   -2.8908   19.6483 C   0  0  0  0  0  0
  -51.8358   -4.1175   20.1158 C   0  0  0  0  0  0
  -44.8707   -1.4053   18.0433 C   0  0  0  0  0  0
  -50.9082   -5.2729   20.5238 C   0  0  0  0  0  0
  -43.6697   -2.3012   17.7194 C   0  0  0  0  0  0
  -44.8603   -0.1740   17.1314 C   0  0  0  0  0  0
  -44.8021   -0.9652   19.5103 C   0  0  0  0  0  0
  -52.3547   -5.2986   17.9964 C   0  0  0  0  0  0
  -53.4178   -5.6365   17.0154 C   0  0  0  0  0  0
  -49.0698   -6.9354   19.2421 C   0  0  0  0  0  0
  -53.6509   -6.9558   16.6273 C   0  0  0  0  0  0
  -54.1901   -4.6054   16.4806 C   0  0  0  0  0  0
  -47.8650   -7.3574   18.6799 C   0  0  0  0  0  0
  -50.0875   -7.8580   19.4840 C   0  0  0  0  0  0
  -54.6563   -7.2441   15.7045 C   0  0  0  0  0  0
  -52.8276   -8.0678   17.1958 C   0  0  0  0  0  0
  -55.1956   -4.8937   15.5577 C   0  0  0  0  0  0
  -47.6778   -8.7020   18.3599 C   0  0  0  0  0  0
  -49.9002   -9.2028   19.1640 C   0  0  0  0  0  0
  -55.4286   -6.2129   15.1695 C   0  0  0  0  0  0
  -48.6955   -9.6247   18.6019 C   0  0  0  0  0  0
  -46.0149   -3.1501   17.6957 H   0  0  0  0  0  0
  -51.0802   -0.9563   19.9232 H   0  0  0  0  0  0
  -53.7407   -4.3049   19.1892 H   0  0  0  0  0  0
  -55.6425   -8.5323   14.6863 H   0  0  0  0  0  0
  1 23  1  0  0  0
  1 29  1  0  0  0
  2 19  2  0  0  0
  3 20  1  0  0  0
  3 42  1  0  0  0
  4 27  2  0  0  0
  5 34  1  0  0  0
  5 44  1  0  0  0
  6 12  1  0  0  0
  6 15  1  0  0  0
  6 18  1  0  0  0
  7 19  1  0  0  0
  7 22  1  0  0  0
  7 41  1  0  0  0
  8 21  1  0  0  0
  8 27  1  0  0  0
  8 43  1  0  0  0
  9 10  1  0  0  0
  9 11  1  0  0  0
  9 13  1  0  0  0
 10 12  1  0  0  0
 10 14  1  0  0  0
 11 15  1  0  0  0
 13 16  1  0  0  0
 14 17  1  0  0  0
 15 19  1  0  0  0
 16 17  1  0  0  0
 18 20  1  0  0  0
 20 21  1  0  0  0
 21 23  1  0  0  0
 22 24  1  0  0  0
 22 25  1  0  0  0
 22 26  1  0  0  0
 27 28  1  0  0  0
 28 30  2  0  0  0
 28 31  1  0  0  0
 29 32  2  0  0  0
 29 33  1  0  0  0
 30 34  1  0  0  0
 30 35  1  0  0  0
 31 36  2  0  0  0
 32 37  1  0  0  0
 33 38  2  0  0  0
 34 39  2  0  0  0
 36 39  1  0  0  0
 37 40  2  0  0  0
 38 40  1  0  0  0
M  END
>  <CHROM.0>
140.77566418,-60.77594615,-54.66456858

>  <CHROM.1>
-137.66189119,-172.97449875,-65.11443019,178.73611117,-136.64865531,-173.21883336
78.84444334,-4.18810063,74.01332621,92.90730867,96.41981439,54.56489680,-49.93804197
-4.06541364,17.48401963,-2.50637615,-0.41116462,-0.53666758

>  <Name>
64143

>  <PUBCHEM_ATOM_DEF_STEREO_COUNT>
5

>  <PUBCHEM_ATOM_UDEF_STEREO_COUNT>
0

>  <PUBCHEM_BOND_DEF_STEREO_COUNT>
0

>  <PUBCHEM_BOND_UDEF_STEREO_COUNT>
0

>  <PUBCHEM_CACTVS_TAUTO_COUNT>
12

>  <PUBCHEM_COMPONENT_COUNT>
1

>  <PUBCHEM_COMPOUND_CID>
64143

>  <PUBCHEM_CONFORMER_DIVERSEORDER>
1
21
84
153
101
123
82
146
125
17
85
73
20
32
151
113
8
57
53
6
52
117
108
155
94
19
118
148
88
54
130
70
105
150
142
135
56
2
77
61
92
106
139
116
7
51
96
80
93
34
132
115
24
147
122
121
67
36
124
66
145
141
112
44
110
58
104
11
79
149
50
143
60
10
46
100
74
55
129
25
30
131
114
97
47
102
111
140
134
81
16
28
109
144
152
48
86
45
126
39
87
65
29
4
95
156
35
133
27
62
78
49
75
98
99
68
15
63
90
69
107
3
103
64
41
59
76
22
9
136
12
157
33
26
23
119
89
38
71
31
138
154
14
43
127
120
72
128
18
37
42
40
137
83
5
91
13

>  <PUBCHEM_CONFORMER_ID>
0000FA8F00000001

>  <PUBCHEM_CONFORMER_RMSD>
1.4

>  <PUBCHEM_COORDINATE_TYPE>
2
5
10

>  <PUBCHEM_EFFECTIVE_ROTOR_COUNT>
13.6

>  <PUBCHEM_FEATURE_SELFOVERLAP>
66.023

>  <PUBCHEM_HEAVY_ATOM_COUNT>
40

>  <PUBCHEM_ISOTOPIC_ATOM_COUNT>
0

>  <PUBCHEM_MMFF94_ENERGY>
106.283

>  <PUBCHEM_MMFF94_PARTIAL_CHARGES>
42
1 -0.33
12 0.27
15 0.33
18 0.27
19 0.57
2 -0.57
20 0.28
21 0.3
22 0.3
23 0.23
27 0.54
28 0.09
29 0.1
3 -0.68
30 -0.14
31 -0.15
32 -0.15
33 -0.15
34 0.08
35 0.14
36 -0.15
37 -0.15
38 -0.15
39 -0.15
4 -0.57
40 -0.15
5 -0.53
59 0.37
6 -0.81
61 0.4
64 0.37
7 -0.73
74 0.15
75 0.15
76 0.15
8 -0.73
80 0.15
81 0.15
82 0.15
83 0.15
84 0.15
85 0.45

>  <PUBCHEM_PHARMACOPHORE_FEATURES>
13
1 2 acceptor
1 3 acceptor
1 3 donor
1 4 acceptor
1 5 donor
1 6 cation
1 7 donor
1 8 donor
4 22 24 25 26 hydrophobe
6 28 30 31 34 36 39 rings
6 29 32 33 37 38 40 rings
6 6 9 10 11 12 15 rings
6 9 10 13 14 16 17 rings

>  <PUBCHEM_SHAPE_FINGERPRINT>
10032420 55 18130495444200979297
10319688 77 17470141684274524266
10721379 63 18052271596134557976
11421498 54 18270101526886733871
11991303 11 17825385439061262902
13690498 29 17703225234654346413
13911987 19 18189607414530907799
15064981 113 18187641419363593252
15439362 3 18118695322292951744
19319366 153 18342181024936020931
19958102 18 18337956809306142254
20505436 4 17987259766991243505
22393880 68 17989485238265708768
23559900 14 17977103453547379345
340366 18 17766549158792973763
4409770 3 18048885387894744490
504843 32 17969224610910731106
563151 97 18410570691006883420
6058803 2 18127403450458884667
6691757 9 18267867358440949680

>  <PUBCHEM_SHAPE_MULTIPOLES>
788.61
15.86
8.74
2.82
9.48
18.24
1.5
-18.8
9.61
4.55
-3.03
-1.39
0.57
-6.09

>  <PUBCHEM_SHAPE_SELFOVERLAP>
1639.542

>  <PUBCHEM_SHAPE_VOLUME>
450.8

>  <RI>
-5.49088e+08

>  <Rbt.Current_Directory>
/root/miniconda3/envs/rdock/share/rxdock-2013.1.1_148c5bd1-0/data/ligands/prepped_ligands/Nelfinavir

>  <Rbt.Executable>
rbdock/0.1.0

>  <Rbt.Library>
librxdock.so/0.1.0

>  <Rbt.Parameter_File>
/root/miniconda3/envs/rdock/share/rxdock-2013.1.1_148c5bd1-0/data/scripts/dock.prm

>  <Rbt.Receptor>
def.prm

>  <SCORE>
-4.72699

>  <SCORE.INTER>
-12.1704

>  <SCORE.INTER.CONST>
1

>  <SCORE.INTER.POLAR>
0

>  <SCORE.INTER.REPUL>
0

>  <SCORE.INTER.ROT>
10

>  <SCORE.INTER.VDW>
-27.5704

>  <SCORE.INTER.norm>
-0.30426

>  <SCORE.INTRA>
6.61701

>  <SCORE.INTRA.DIHEDRAL>
8.87626

>  <SCORE.INTRA.DIHEDRAL.0>
15.8713

>  <SCORE.INTRA.POLAR>
0

>  <SCORE.INTRA.POLAR.0>
0

>  <SCORE.INTRA.REPUL>
0

>  <SCORE.INTRA.REPUL.0>
0

>  <SCORE.INTRA.VDW>
2.17889

>  <SCORE.INTRA.VDW.0>
-0.89017

>  <SCORE.INTRA.norm>
0.165425

>  <SCORE.RESTR>
0.00186939

>  <SCORE.RESTR.CAVITY>
0.00186939

>  <SCORE.RESTR.norm>
4.67348e-05

>  <SCORE.SYSTEM>
0.824525

>  <SCORE.SYSTEM.CONST>
0

>  <SCORE.SYSTEM.DIHEDRAL>
2.71699

>  <SCORE.SYSTEM.POLAR>
-0.0119967

>  <SCORE.SYSTEM.VDW>
-0.493183

>  <SCORE.SYSTEM.norm>
0.0206131

>  <SCORE.heavy>
40

>  <SCORE.norm>
-0.118175

$$$$
64143
  RxDock  02242113083D
librxdock.so/0.1.0
 44 47  0  0  0  0  0  0  0  0999 V2000
  -42.8057   -1.5265   17.7479 S   0  0  0  0  0  0
  -50.2772   -5.4149   18.9715 O   0  0  0  0  0  0
  -45.8292   -3.3653   14.7289 O   0  0  0  0  0  0
  -46.8593    0.2072   15.6619 O   0  0  0  0  0  0
  -46.8494    3.3378   20.4502 O   0  0  0  0  0  0
  -48.5985   -3.8457   16.4419 N   0  0  0  0  0  0
  -48.2171   -6.0077   18.0641 N   0  0  0  0  0  0
  -46.1016   -1.0568   17.4518 N   0  0  0  0  0  0
  -51.3384   -2.8965   17.1841 C   0  0  0  0  0  0
  -50.8466   -2.9434   15.7259 C   0  0  0  0  0  0
  -50.1452   -2.7866   18.1497 C   0  0  0  0  0  0
  -49.7519   -4.0116   15.5444 C   0  0  0  0  0  0
  -52.2681   -4.0725   17.5290 C   0  0  0  0  0  0
  -52.0119   -3.1413   14.7423 C   0  0  0  0  0  0
  -48.9820   -3.7459   17.8555 C   0  0  0  0  0  0
  -53.4303   -4.1799   16.5462 C   0  0  0  0  0  0
  -52.9323   -4.3007   15.1111 C   0  0  0  0  0  0
  -47.7472   -2.7272   16.0359 C   0  0  0  0  0  0
  -49.2510   -5.1352   18.3575 C   0  0  0  0  0  0
  -46.2561   -3.0916   16.0653 C   0  0  0  0  0  0
  -45.3364   -2.0070   16.6721 C   0  0  0  0  0  0
  -48.2204   -7.3982   18.4578 C   0  0  0  0  0  0
  -44.2302   -2.6410   17.5302 C   0  0  0  0  0  0
  -48.5389   -7.5006   19.9537 C   0  0  0  0  0  0
  -49.2854   -8.1454   17.6482 C   0  0  0  0  0  0
  -46.8397   -8.0056   18.1841 C   0  0  0  0  0  0
  -46.8062   -0.0177   16.8682 C   0  0  0  0  0  0
  -47.5188    0.8864   17.8072 C   0  0  0  0  0  0
  -43.0216   -1.0127   19.4470 C   0  0  0  0  0  0
  -46.8197    1.6981   18.7003 C   0  0  0  0  0  0
  -48.9132    0.9142   17.7842 C   0  0  0  0  0  0
  -43.6470   -1.8632   20.3586 C   0  0  0  0  0  0
  -42.5652    0.2388   19.8605 C   0  0  0  0  0  0
  -47.5148    2.5379   19.5704 C   0  0  0  0  0  0
  -45.3243    1.6748   18.7316 C   0  0  0  0  0  0
  -49.6084    1.7540   18.6545 C   0  0  0  0  0  0
  -43.8158   -1.4623   21.6839 C   0  0  0  0  0  0
  -42.7340    0.6396   21.1859 C   0  0  0  0  0  0
  -48.9093    2.5657   19.5477 C   0  0  0  0  0  0
  -43.3594   -0.2107   22.0975 C   0  0  0  0  0  0
  -47.4568   -5.6903   17.4706 H   0  0  0  0  0  0
  -46.4168   -4.0522   14.3704 H   0  0  0  0  0  0
  -46.1371   -1.1795   18.4600 H   0  0  0  0  0  0
  -47.4177    4.0903   20.6882 H   0  0  0  0  0  0
  1 23  1  0  0  0
  1 29  1  0  0  0
  2 19  2  0  0  0
  3 20  1  0  0  0
  3 42  1  0  0  0
  4 27  2  0  0  0
  5 34  1  0  0  0
  5 44  1  0  0  0
  6 12  1  0  0  0
  6 15  1  0  0  0
  6 18  1  0  0  0
  7 19  1  0  0  0
  7 22  1  0  0  0
  7 41  1  0  0  0
  8 21  1  0  0  0
  8 27  1  0  0  0
  8 43  1  0  0  0
  9 10  1  0  0  0
  9 11  1  0  0  0
  9 13  1  0  0  0
 10 12  1  0  0  0
 10 14  1  0  0  0
 11 15  1  0  0  0
 13 16  1  0  0  0
 14 17  1  0  0  0
 15 19  1  0  0  0
 16 17  1  0  0  0
 18 20  1  0  0  0
 20 21  1  0  0  0
 21 23  1  0  0  0
 22 24  1  0  0  0
 22 25  1  0  0  0
 22 26  1  0  0  0
 27 28  1  0  0  0
 28 30  2  0  0  0
 28 31  1  0  0  0
 29 32  2  0  0  0
 29 33  1  0  0  0
 30 34  1  0  0  0
 30 35  1  0  0  0
 31 36  2  0  0  0
 32 37  1  0  0  0
 33 38  2  0  0  0
 34 39  2  0  0  0
 36 39  1  0  0  0
 37 40  2  0  0  0
 38 40  1  0  0  0
M  END
>  <CHROM.0>
64.94987602,-65.00914386,-58.24338273

>  <CHROM.1>
106.07338890,28.99423970,-54.80882472,156.15273345,-134.81863436,-50.66644611
-80.31829978,-130.27393237,100.94785414,139.43552243,-77.69813273,-112.92595365
-47.46406262,-2.24142153,17.93477330,-0.75100939,0.33220882,-3.06588523

>  <Name>
64143

>  <PUBCHEM_ATOM_DEF_STEREO_COUNT>
5

>  <PUBCHEM_ATOM_UDEF_STEREO_COUNT>
0

>  <PUBCHEM_BOND_DEF_STEREO_COUNT>
0

>  <PUBCHEM_BOND_UDEF_STEREO_COUNT>
0

>  <PUBCHEM_CACTVS_TAUTO_COUNT>
12

>  <PUBCHEM_COMPONENT_COUNT>
1

>  <PUBCHEM_COMPOUND_CID>
64143

>  <PUBCHEM_CONFORMER_DIVERSEORDER>
1
21
84
153
101
123
82
146
125
17
85
73
20
32
151
113
8
57
53
6
52
117
108
155
94
19
118
148
88
54
130
70
105
150
142
135
56
2
77
61
92
106
139
116
7
51
96
80
93
34
132
115
24
147
122
121
67
36
124
66
145
141
112
44
110
58
104
11
79
149
50
143
60
10
46
100
74
55
129
25
30
131
114
97
47
102
111
140
134
81
16
28
109
144
152
48
86
45
126
39
87
65
29
4
95
156
35
133
27
62
78
49
75
98
99
68
15
63
90
69
107
3
103
64
41
59
76
22
9
136
12
157
33
26
23
119
89
38
71
31
138
154
14
43
127
120
72
128
18
37
42
40
137
83
5
91
13

>  <PUBCHEM_CONFORMER_ID>
0000FA8F00000001

>  <PUBCHEM_CONFORMER_RMSD>
1.4

>  <PUBCHEM_COORDINATE_TYPE>
2
5
10

>  <PUBCHEM_EFFECTIVE_ROTOR_COUNT>
13.6

>  <PUBCHEM_FEATURE_SELFOVERLAP>
66.023

>  <PUBCHEM_HEAVY_ATOM_COUNT>
40

>  <PUBCHEM_ISOTOPIC_ATOM_COUNT>
0

>  <PUBCHEM_MMFF94_ENERGY>
106.283

>  <PUBCHEM_MMFF94_PARTIAL_CHARGES>
42
1 -0.33
12 0.27
15 0.33
18 0.27
19 0.57
2 -0.57
20 0.28
21 0.3
22 0.3
23 0.23
27 0.54
28 0.09
29 0.1
3 -0.68
30 -0.14
31 -0.15
32 -0.15
33 -0.15
34 0.08
35 0.14
36 -0.15
37 -0.15
38 -0.15
39 -0.15
4 -0.57
40 -0.15
5 -0.53
59 0.37
6 -0.81
61 0.4
64 0.37
7 -0.73
74 0.15
75 0.15
76 0.15
8 -0.73
80 0.15
81 0.15
82 0.15
83 0.15
84 0.15
85 0.45

>  <PUBCHEM_PHARMACOPHORE_FEATURES>
13
1 2 acceptor
1 3 acceptor
1 3 donor
1 4 acceptor
1 5 donor
1 6 cation
1 7 donor
1 8 donor
4 22 24 25 26 hydrophobe
6 28 30 31 34 36 39 rings
6 29 32 33 37 38 40 rings
6 6 9 10 11 12 15 rings
6 9 10 13 14 16 17 rings

>  <PUBCHEM_SHAPE_FINGERPRINT>
10032420 55 18130495444200979297
10319688 77 17470141684274524266
10721379 63 18052271596134557976
11421498 54 18270101526886733871
11991303 11 17825385439061262902
13690498 29 17703225234654346413
13911987 19 18189607414530907799
15064981 113 18187641419363593252
15439362 3 18118695322292951744
19319366 153 18342181024936020931
19958102 18 18337956809306142254
20505436 4 17987259766991243505
22393880 68 17989485238265708768
23559900 14 17977103453547379345
340366 18 17766549158792973763
4409770 3 18048885387894744490
504843 32 17969224610910731106
563151 97 18410570691006883420
6058803 2 18127403450458884667
6691757 9 18267867358440949680

>  <PUBCHEM_SHAPE_MULTIPOLES>
788.61
15.86
8.74
2.82
9.48
18.24
1.5
-18.8
9.61
4.55
-3.03
-1.39
0.57
-6.09

>  <PUBCHEM_SHAPE_SELFOVERLAP>
1639.542

>  <PUBCHEM_SHAPE_VOLUME>
450.8

>  <RI>
-5.49088e+08

>  <Rbt.Current_Directory>
/root/miniconda3/envs/rdock/share/rxdock-2013.1.1_148c5bd1-0/data/ligands/prepped_ligands/Nelfinavir

>  <Rbt.Executable>
rbdock/0.1.0

>  <Rbt.Library>
librxdock.so/0.1.0

>  <Rbt.Parameter_File>
/root/miniconda3/envs/rdock/share/rxdock-2013.1.1_148c5bd1-0/data/scripts/dock.prm

>  <Rbt.Receptor>
def.prm

>  <SCORE>
-11.9176

>  <SCORE.INTER>
-17.3603

>  <SCORE.INTER.CONST>
1

>  <SCORE.INTER.POLAR>
-0.894427

>  <SCORE.INTER.REPUL>
0.261936

>  <SCORE.INTER.ROT>
10

>  <SCORE.INTER.VDW>
-31.0289

>  <SCORE.INTER.norm>
-0.434007

>  <SCORE.INTRA>
5.74537

>  <SCORE.INTRA.DIHEDRAL>
14.1005

>  <SCORE.INTRA.DIHEDRAL.0>
15.8713

>  <SCORE.INTRA.POLAR>
0

>  <SCORE.INTRA.POLAR.0>
0

>  <SCORE.INTRA.REPUL>
0

>  <SCORE.INTRA.REPUL.0>
0

>  <SCORE.INTRA.VDW>
-1.30488

>  <SCORE.INTRA.VDW.0>
-0.89017

>  <SCORE.INTRA.norm>
0.143634

>  <SCORE.RESTR>
0.683824

>  <SCORE.RESTR.CAVITY>
0.683824

>  <SCORE.RESTR.norm>
0.0170956

>  <SCORE.SYSTEM>
-0.986494

>  <SCORE.SYSTEM.CONST>
0

>  <SCORE.SYSTEM.DIHEDRAL>
0.185988

>  <SCORE.SYSTEM.POLAR>
-0.00505408

>  <SCORE.SYSTEM.VDW>
-1.0623

>  <SCORE.SYSTEM.norm>
-0.0246623

>  <SCORE.heavy>
40

>  <SCORE.norm>
-0.297939

$$$$
64143
  RxDock  02242113083D
librxdock.so/0.1.0
 44 47  0  0  0  0  0  0  0  0999 V2000
  -48.4262   -0.9737   13.5097 S   0  0  0  0  0  0
  -49.5615   -6.1168   17.2197 O   0  0  0  0  0  0
  -46.8970   -2.9521   15.9241 O   0  0  0  0  0  0
  -47.0405    1.4001   18.0907 O   0  0  0  0  0  0
  -42.2052   -0.5768   20.4719 O   0  0  0  0  0  0
  -49.5805   -3.6260   16.3078 N   0  0  0  0  0  0
  -49.4855   -5.4363   19.4445 N   0  0  0  0  0  0
  -46.0377   -0.1914   16.7354 N   0  0  0  0  0  0
  -52.4248   -3.7752   17.2276 C   0  0  0  0  0  0
  -52.0436   -3.5041   15.7607 C   0  0  0  0  0  0
  -51.2828   -3.3487   18.1667 C   0  0  0  0  0  0
  -50.6614   -4.0974   15.4287 C   0  0  0  0  0  0
  -52.8662   -5.2303   17.4609 C   0  0  0  0  0  0
  -53.1302   -4.0011   14.7930 C   0  0  0  0  0  0
  -49.8816   -3.8055   17.7334 C   0  0  0  0  0  0
  -53.9812   -5.6420   16.5041 C   0  0  0  0  0  0
  -53.5670   -5.4397   15.0516 C   0  0  0  0  0  0
  -49.1967   -2.2460   16.0093 C   0  0  0  0  0  0
  -49.6205   -5.2428   18.0804 C   0  0  0  0  0  0
  -47.7575   -1.9362   16.4447 C   0  0  0  0  0  0
  -47.2285   -0.5544   15.9962 C   0  0  0  0  0  0
  -49.2514   -6.7321   20.0398 C   0  0  0  0  0  0
  -46.9509   -0.5358   14.4847 C   0  0  0  0  0  0
  -49.0157   -6.5632   21.5450 C   0  0  0  0  0  0
  -50.4771   -7.6207   19.8031 C   0  0  0  0  0  0
  -48.0157   -7.3702   19.3949 C   0  0  0  0  0  0
  -46.0496    0.7687   17.7327 C   0  0  0  0  0  0
  -44.7404    1.0454   18.3779 C   0  0  0  0  0  0
  -48.7780    0.5780   12.6936 C   0  0  0  0  0  0
  -44.0871    0.0728   19.1346 C   0  0  0  0  0  0
  -44.1649    2.3056   18.2153 C   0  0  0  0  0  0
  -49.9100    1.3116   13.0486 C   0  0  0  0  0  0
  -47.9208    1.0544   11.7018 C   0  0  0  0  0  0
  -42.8583    0.3602   19.7287 C   0  0  0  0  0  0
  -44.6968   -1.2813   19.3141 C   0  0  0  0  0  0
  -42.9361    2.5931   18.8095 C   0  0  0  0  0  0
  -50.1847    2.5219   12.4118 C   0  0  0  0  0  0
  -48.1956    2.2648   11.0650 C   0  0  0  0  0  0
  -42.2828    1.6205   19.5663 C   0  0  0  0  0  0
  -49.3275    2.9983   11.4199 C   0  0  0  0  0  0
  -49.4607   -4.6272   20.0576 H   0  0  0  0  0  0
  -47.2399   -3.8091   16.2303 H   0  0  0  0  0  0
  -45.1726   -0.6816   16.5249 H   0  0  0  0  0  0
  -41.5976   -0.1289   21.0853 H   0  0  0  0  0  0
  1 23  1  0  0  0
  1 29  1  0  0  0
  2 19  2  0  0  0
  3 20  1  0  0  0
  3 42  1  0  0  0
  4 27  2  0  0  0
  5 34  1  0  0  0
  5 44  1  0  0  0
  6 12  1  0  0  0
  6 15  1  0  0  0
  6 18  1  0  0  0
  7 19  1  0  0  0
  7 22  1  0  0  0
  7 41  1  0  0  0
  8 21  1  0  0  0
  8 27  1  0  0  0
  8 43  1  0  0  0
  9 10  1  0  0  0
  9 11  1  0  0  0
  9 13  1  0  0  0
 10 12  1  0  0  0
 10 14  1  0  0  0
 11 15  1  0  0  0
 13 16  1  0  0  0
 14 17  1  0  0  0
 15 19  1  0  0  0
 16 17  1  0  0  0
 18 20  1  0  0  0
 20 21  1  0  0  0
 21 23  1  0  0  0
 22 24  1  0  0  0
 22 25  1  0  0  0
 22 26  1  0  0  0
 27 28  1  0  0  0
 28 30  2  0  0  0
 28 31  1  0  0  0
 29 32  2  0  0  0
 29 33  1  0  0  0
 30 34  1  0  0  0
 30 35  1  0  0  0
 31 36  2  0  0  0
 32 37  1  0  0  0
 33 38  2  0  0  0
 34 39  2  0  0  0
 36 39  1  0  0  0
 37 40  2  0  0  0
 38 40  1  0  0  0
M  END
>  <CHROM.0>
-174.92646118,-179.81404143,-68.46191904

>  <CHROM.1>
112.68189787,-110.47085275,-55.36802423,-156.89201239,-155.57476386,174.43776558
-105.94856435,-18.99137087,50.50331643,-73.79471952,-179.54140955,115.81465106
-48.32830107,-2.01380398,16.72201561,0.59754623,-0.61106360,-0.79347748

>  <Name>
64143

>  <PUBCHEM_ATOM_DEF_STEREO_COUNT>
5

>  <PUBCHEM_ATOM_UDEF_STEREO_COUNT>
0

>  <PUBCHEM_BOND_DEF_STEREO_COUNT>
0

>  <PUBCHEM_BOND_UDEF_STEREO_COUNT>
0

>  <PUBCHEM_CACTVS_TAUTO_COUNT>
12

>  <PUBCHEM_COMPONENT_COUNT>
1

>  <PUBCHEM_COMPOUND_CID>
64143

>  <PUBCHEM_CONFORMER_DIVERSEORDER>
1
21
84
153
101
123
82
146
125
17
85
73
20
32
151
113
8
57
53
6
52
117
108
155
94
19
118
148
88
54
130
70
105
150
142
135
56
2
77
61
92
106
139
116
7
51
96
80
93
34
132
115
24
147
122
121
67
36
124
66
145
141
112
44
110
58
104
11
79
149
50
143
60
10
46
100
74
55
129
25
30
131
114
97
47
102
111
140
134
81
16
28
109
144
152
48
86
45
126
39
87
65
29
4
95
156
35
133
27
62
78
49
75
98
99
68
15
63
90
69
107
3
103
64
41
59
76
22
9
136
12
157
33
26
23
119
89
38
71
31
138
154
14
43
127
120
72
128
18
37
42
40
137
83
5
91
13

>  <PUBCHEM_CONFORMER_ID>
0000FA8F00000001

>  <PUBCHEM_CONFORMER_RMSD>
1.4

>  <PUBCHEM_COORDINATE_TYPE>
2
5
10

>  <PUBCHEM_EFFECTIVE_ROTOR_COUNT>
13.6

>  <PUBCHEM_FEATURE_SELFOVERLAP>
66.023

>  <PUBCHEM_HEAVY_ATOM_COUNT>
40

>  <PUBCHEM_ISOTOPIC_ATOM_COUNT>
0

>  <PUBCHEM_MMFF94_ENERGY>
106.283

>  <PUBCHEM_MMFF94_PARTIAL_CHARGES>
42
1 -0.33
12 0.27
15 0.33
18 0.27
19 0.57
2 -0.57
20 0.28
21 0.3
22 0.3
23 0.23
27 0.54
28 0.09
29 0.1
3 -0.68
30 -0.14
31 -0.15
32 -0.15
33 -0.15
34 0.08
35 0.14
36 -0.15
37 -0.15
38 -0.15
39 -0.15
4 -0.57
40 -0.15
5 -0.53
59 0.37
6 -0.81
61 0.4
64 0.37
7 -0.73
74 0.15
75 0.15
76 0.15
8 -0.73
80 0.15
81 0.15
82 0.15
83 0.15
84 0.15
85 0.45

>  <PUBCHEM_PHARMACOPHORE_FEATURES>
13
1 2 acceptor
1 3 acceptor
1 3 donor
1 4 acceptor
1 5 donor
1 6 cation
1 7 donor
1 8 donor
4 22 24 25 26 hydrophobe
6 28 30 31 34 36 39 rings
6 29 32 33 37 38 40 rings
6 6 9 10 11 12 15 rings
6 9 10 13 14 16 17 rings

>  <PUBCHEM_SHAPE_FINGERPRINT>
10032420 55 18130495444200979297
10319688 77 17470141684274524266
10721379 63 18052271596134557976
11421498 54 18270101526886733871
11991303 11 17825385439061262902
13690498 29 17703225234654346413
13911987 19 18189607414530907799
15064981 113 18187641419363593252
15439362 3 18118695322292951744
19319366 153 18342181024936020931
19958102 18 18337956809306142254
20505436 4 17987259766991243505
22393880 68 17989485238265708768
23559900 14 17977103453547379345
340366 18 17766549158792973763
4409770 3 18048885387894744490
504843 32 17969224610910731106
563151 97 18410570691006883420
6058803 2 18127403450458884667
6691757 9 18267867358440949680

>  <PUBCHEM_SHAPE_MULTIPOLES>
788.61
15.86
8.74
2.82
9.48
18.24
1.5
-18.8
9.61
4.55
-3.03
-1.39
0.57
-6.09

>  <PUBCHEM_SHAPE_SELFOVERLAP>
1639.542

>  <PUBCHEM_SHAPE_VOLUME>
450.8

>  <RI>
-5.49088e+08

>  <Rbt.Current_Directory>
/root/miniconda3/envs/rdock/share/rxdock-2013.1.1_148c5bd1-0/data/ligands/prepped_ligands/Nelfinavir

>  <Rbt.Executable>
rbdock/0.1.0

>  <Rbt.Library>
librxdock.so/0.1.0

>  <Rbt.Parameter_File>
/root/miniconda3/envs/rdock/share/rxdock-2013.1.1_148c5bd1-0/data/scripts/dock.prm

>  <Rbt.Receptor>
def.prm

>  <SCORE>
-15.4672

>  <SCORE.INTER>
-17.0565

>  <SCORE.INTER.CONST>
1

>  <SCORE.INTER.POLAR>
0

>  <SCORE.INTER.REPUL>
0.0795211

>  <SCORE.INTER.ROT>
10

>  <SCORE.INTER.VDW>
-32.8541

>  <SCORE.INTER.norm>
-0.426413

>  <SCORE.INTRA>
2.54493

>  <SCORE.INTRA.DIHEDRAL>
4.86442

>  <SCORE.INTRA.DIHEDRAL.0>
15.8713

>  <SCORE.INTRA.POLAR>
-0.0808117

>  <SCORE.INTRA.POLAR.0>
0

>  <SCORE.INTRA.REPUL>
0

>  <SCORE.INTRA.REPUL.0>
0

>  <SCORE.INTRA.VDW>
0.387483

>  <SCORE.INTRA.VDW.0>
-0.89017

>  <SCORE.INTRA.norm>
0.0636233

>  <SCORE.RESTR>
0.00485957

>  <SCORE.RESTR.CAVITY>
0.00485957

>  <SCORE.RESTR.norm>
0.000121489

>  <SCORE.SYSTEM>
-0.960499

>  <SCORE.SYSTEM.CONST>
0

>  <SCORE.SYSTEM.DIHEDRAL>
0.240274

>  <SCORE.SYSTEM.VDW>
-1.08064

>  <SCORE.SYSTEM.norm>
-0.0240125

>  <SCORE.heavy>
40

>  <SCORE.norm>
-0.386681

$$$$
64143
  RxDock  02242113093D
librxdock.so/0.1.0
 44 47  0  0  0  0  0  0  0  0999 V2000
  -49.9008   -0.3688   14.5999 S   0  0  0  0  0  0
  -51.0177   -5.6870   17.6160 O   0  0  0  0  0  0
  -50.5918   -0.2721   18.7994 O   0  0  0  0  0  0
  -47.8296    2.5945   18.2156 O   0  0  0  0  0  0
  -42.5760    0.3250   19.1902 O   0  0  0  0  0  0
  -50.1020   -3.3116   18.2649 N   0  0  0  0  0  0
  -49.5920   -6.8316   19.0568 N   0  0  0  0  0  0
  -47.7033    0.2911   17.9842 N   0  0  0  0  0  0
  -51.1842   -3.8785   20.9973 C   0  0  0  0  0  0
  -51.6395   -2.6674   20.1628 C   0  0  0  0  0  0
  -49.7786   -4.3310   20.5642 C   0  0  0  0  0  0
  -51.4697   -2.9374   18.6559 C   0  0  0  0  0  0
  -52.2064   -5.0278   20.9715 C   0  0  0  0  0  0
  -53.0765   -2.2472   20.5134 C   0  0  0  0  0  0
  -49.5697   -4.4350   19.0459 C   0  0  0  0  0  0
  -53.5983   -4.5542   21.3796 C   0  0  0  0  0  0
  -54.0715   -3.4035   20.4997 C   0  0  0  0  0  0
  -49.1946   -2.1640   18.2870 C   0  0  0  0  0  0
  -50.1441   -5.7012   18.4791 C   0  0  0  0  0  0
  -49.8556   -0.8903   17.7415 C   0  0  0  0  0  0
  -48.8736    0.1440   17.1445 C   0  0  0  0  0  0
  -49.9898   -8.1750   18.7028 C   0  0  0  0  0  0
  -48.4655   -0.2464   15.7152 C   0  0  0  0  0  0
  -49.3734   -9.1649   19.6978 C   0  0  0  0  0  0
  -51.5181   -8.2740   18.7519 C   0  0  0  0  0  0
  -49.4944   -8.4938   17.2875 C   0  0  0  0  0  0
  -47.2786    1.5227   18.4526 C   0  0  0  0  0  0
  -46.0454    1.5079   19.2806 C   0  0  0  0  0  0
  -49.9970   -2.1366   14.3483 C   0  0  0  0  0  0
  -44.8735    0.9064   18.8221 C   0  0  0  0  0  0
  -46.0738    2.1111   20.5381 C   0  0  0  0  0  0
  -49.3098   -2.7285   13.2886 C   0  0  0  0  0  0
  -50.7597   -2.9233   15.2112 C   0  0  0  0  0  0
  -43.7300    0.9080   19.6208 C   0  0  0  0  0  0
  -44.8339    0.2575   17.4748 C   0  0  0  0  0  0
  -44.9302    2.1125   21.3369 C   0  0  0  0  0  0
  -49.3852   -4.1074   13.0920 C   0  0  0  0  0  0
  -50.8349   -4.3023   15.0146 C   0  0  0  0  0  0
  -43.7584    1.5109   20.8784 C   0  0  0  0  0  0
  -50.1479   -4.8943   13.9550 C   0  0  0  0  0  0
  -48.8099   -6.7273   19.6961 H   0  0  0  0  0  0
  -51.0434    0.5036   18.4253 H   0  0  0  0  0  0
  -47.1966   -0.5475   18.2544 H   0  0  0  0  0  0
  -41.9399    1.0199   18.9483 H   0  0  0  0  0  0
  1 23  1  0  0  0
  1 29  1  0  0  0
  2 19  2  0  0  0
  3 20  1  0  0  0
  3 42  1  0  0  0
  4 27  2  0  0  0
  5 34  1  0  0  0
  5 44  1  0  0  0
  6 12  1  0  0  0
  6 15  1  0  0  0
  6 18  1  0  0  0
  7 19  1  0  0  0
  7 22  1  0  0  0
  7 41  1  0  0  0
  8 21  1  0  0  0
  8 27  1  0  0  0
  8 43  1  0  0  0
  9 10  1  0  0  0
  9 11  1  0  0  0
  9 13  1  0  0  0
 10 12  1  0  0  0
 10 14  1  0  0  0
 11 15  1  0  0  0
 13 16  1  0  0  0
 14 17  1  0  0  0
 15 19  1  0  0  0
 16 17  1  0  0  0
 18 20  1  0  0  0
 20 21  1  0  0  0
 21 23  1  0  0  0
 22 24  1  0  0  0
 22 25  1  0  0  0
 22 26  1  0  0  0
 27 28  1  0  0  0
 28 30  2  0  0  0
 28 31  1  0  0  0
 29 32  2  0  0  0
 29 33  1  0  0  0
 30 34  1  0  0  0
 30 35  1  0  0  0
 31 36  2  0  0  0
 32 37  1  0  0  0
 33 38  2  0  0  0
 34 39  2  0  0  0
 36 39  1  0  0  0
 37 40  2  0  0  0
 38 40  1  0  0  0
M  END
>  <CHROM.0>
-73.13335423,63.82124633,-43.60061316

>  <CHROM.1>
-108.89545988,-90.53967406,-176.88464273,106.24602880,-39.97344840,-169.86764864
-126.38774866,-7.43812943,84.16535838,78.74288781,-177.37268868,-125.80789037
-49.15892614,-2.46331976,18.14832867,0.11091278,-0.92318701,-1.39052684

>  <Name>
64143

>  <PUBCHEM_ATOM_DEF_STEREO_COUNT>
5

>  <PUBCHEM_ATOM_UDEF_STEREO_COUNT>
0

>  <PUBCHEM_BOND_DEF_STEREO_COUNT>
0

>  <PUBCHEM_BOND_UDEF_STEREO_COUNT>
0

>  <PUBCHEM_CACTVS_TAUTO_COUNT>
12

>  <PUBCHEM_COMPONENT_COUNT>
1

>  <PUBCHEM_COMPOUND_CID>
64143

>  <PUBCHEM_CONFORMER_DIVERSEORDER>
1
21
84
153
101
123
82
146
125
17
85
73
20
32
151
113
8
57
53
6
52
117
108
155
94
19
118
148
88
54
130
70
105
150
142
135
56
2
77
61
92
106
139
116
7
51
96
80
93
34
132
115
24
147
122
121
67
36
124
66
145
141
112
44
110
58
104
11
79
149
50
143
60
10
46
100
74
55
129
25
30
131
114
97
47
102
111
140
134
81
16
28
109
144
152
48
86
45
126
39
87
65
29
4
95
156
35
133
27
62
78
49
75
98
99
68
15
63
90
69
107
3
103
64
41
59
76
22
9
136
12
157
33
26
23
119
89
38
71
31
138
154
14
43
127
120
72
128
18
37
42
40
137
83
5
91
13

>  <PUBCHEM_CONFORMER_ID>
0000FA8F00000001

>  <PUBCHEM_CONFORMER_RMSD>
1.4

>  <PUBCHEM_COORDINATE_TYPE>
2
5
10

>  <PUBCHEM_EFFECTIVE_ROTOR_COUNT>
13.6

>  <PUBCHEM_FEATURE_SELFOVERLAP>
66.023

>  <PUBCHEM_HEAVY_ATOM_COUNT>
40

>  <PUBCHEM_ISOTOPIC_ATOM_COUNT>
0

>  <PUBCHEM_MMFF94_ENERGY>
106.283

>  <PUBCHEM_MMFF94_PARTIAL_CHARGES>
42
1 -0.33
12 0.27
15 0.33
18 0.27
19 0.57
2 -0.57
20 0.28
21 0.3
22 0.3
23 0.23
27 0.54
28 0.09
29 0.1
3 -0.68
30 -0.14
31 -0.15
32 -0.15
33 -0.15
34 0.08
35 0.14
36 -0.15
37 -0.15
38 -0.15
39 -0.15
4 -0.57
40 -0.15
5 -0.53
59 0.37
6 -0.81
61 0.4
64 0.37
7 -0.73
74 0.15
75 0.15
76 0.15
8 -0.73
80 0.15
81 0.15
82 0.15
83 0.15
84 0.15
85 0.45

>  <PUBCHEM_PHARMACOPHORE_FEATURES>
13
1 2 acceptor
1 3 acceptor
1 3 donor
1 4 acceptor
1 5 donor
1 6 cation
1 7 donor
1 8 donor
4 22 24 25 26 hydrophobe
6 28 30 31 34 36 39 rings
6 29 32 33 37 38 40 rings
6 6 9 10 11 12 15 rings
6 9 10 13 14 16 17 rings

>  <PUBCHEM_SHAPE_FINGERPRINT>
10032420 55 18130495444200979297
10319688 77 17470141684274524266
10721379 63 18052271596134557976
11421498 54 18270101526886733871
11991303 11 17825385439061262902
13690498 29 17703225234654346413
13911987 19 18189607414530907799
15064981 113 18187641419363593252
15439362 3 18118695322292951744
19319366 153 18342181024936020931
19958102 18 18337956809306142254
20505436 4 17987259766991243505
22393880 68 17989485238265708768
23559900 14 17977103453547379345
340366 18 17766549158792973763
4409770 3 18048885387894744490
504843 32 17969224610910731106
563151 97 18410570691006883420
6058803 2 18127403450458884667
6691757 9 18267867358440949680

>  <PUBCHEM_SHAPE_MULTIPOLES>
788.61
15.86
8.74
2.82
9.48
18.24
1.5
-18.8
9.61
4.55
-3.03
-1.39
0.57
-6.09

>  <PUBCHEM_SHAPE_SELFOVERLAP>
1639.542

>  <PUBCHEM_SHAPE_VOLUME>
450.8

>  <RI>
-5.49088e+08

>  <Rbt.Current_Directory>
/root/miniconda3/envs/rdock/share/rxdock-2013.1.1_148c5bd1-0/data/ligands/prepped_ligands/Nelfinavir

>  <Rbt.Executable>
rbdock/0.1.0

>  <Rbt.Library>
librxdock.so/0.1.0

>  <Rbt.Parameter_File>
/root/miniconda3/envs/rdock/share/rxdock-2013.1.1_148c5bd1-0/data/scripts/dock.prm

>  <Rbt.Receptor>
def.prm

>  <SCORE>
-5.60536

>  <SCORE.INTER>
-9.07781

>  <SCORE.INTER.CONST>
1

>  <SCORE.INTER.POLAR>
-0.871192

>  <SCORE.INTER.REPUL>
0.0600325

>  <SCORE.INTER.ROT>
10

>  <SCORE.INTER.VDW>
-21.8159

>  <SCORE.INTER.norm>
-0.226945

>  <SCORE.INTRA>
3.64824

>  <SCORE.INTRA.DIHEDRAL>
7.82676

>  <SCORE.INTRA.DIHEDRAL.0>
15.8713

>  <SCORE.INTRA.POLAR>
0

>  <SCORE.INTRA.POLAR.0>
0

>  <SCORE.INTRA.REPUL>
0

>  <SCORE.INTRA.REPUL.0>
0

>  <SCORE.INTRA.VDW>
-0.265141

>  <SCORE.INTRA.VDW.0>
-0.89017

>  <SCORE.INTRA.norm>
0.091206

>  <SCORE.RESTR>
0.162218

>  <SCORE.RESTR.CAVITY>
0.162218

>  <SCORE.RESTR.norm>
0.00405545

>  <SCORE.SYSTEM>
-0.337999

>  <SCORE.SYSTEM.CONST>
0

>  <SCORE.SYSTEM.DIHEDRAL>
1.10201

>  <SCORE.SYSTEM.POLAR>
-0.020117

>  <SCORE.SYSTEM.VDW>
-0.820606

>  <SCORE.SYSTEM.norm>
-0.00844999

>  <SCORE.heavy>
40

>  <SCORE.norm>
-0.140134

$$$$
