64143
  RxDock  02242112013D
librxdock.so/0.1.0
 44 47  0  0  0  0  0  0  0  0999 V2000
  -48.6845   -0.0981   13.1032 S   0  0  0  0  0  0
  -52.2472   -6.8333   18.1325 O   0  0  0  0  0  0
  -49.9837   -2.6949   13.5807 O   0  0  0  0  0  0
  -47.9865   -1.5850   17.9742 O   0  0  0  0  0  0
  -43.0556   -0.7316   19.0901 O   0  0  0  0  0  0
  -51.5113   -4.4518   15.8506 N   0  0  0  0  0  0
  -50.1036   -6.0867   17.6165 N   0  0  0  0  0  0
  -47.9807   -1.3806   15.6647 N   0  0  0  0  0  0
  -54.3696   -5.1585   16.3883 C   0  0  0  0  0  0
  -53.8424   -4.8682   14.9712 C   0  0  0  0  0  0
  -53.4856   -4.4681   17.4419 C   0  0  0  0  0  0
  -52.3358   -5.1711   14.8676 C   0  0  0  0  0  0
  -54.5372   -6.6641   16.6561 C   0  0  0  0  0  0
  -54.6544   -5.6169   13.9014 C   0  0  0  0  0  0
  -51.9733   -4.6374   17.2316 C   0  0  0  0  0  0
  -55.3954   -7.3350   15.5877 C   0  0  0  0  0  0
  -54.8245   -7.1045   14.1937 C   0  0  0  0  0  0
  -51.3748   -3.0340   15.5156 C   0  0  0  0  0  0
  -51.4805   -5.9745   17.7049 C   0  0  0  0  0  0
  -49.9668   -2.6896   15.0100 C   0  0  0  0  0  0
  -49.4181   -1.3293   15.4988 C   0  0  0  0  0  0
  -49.3784   -7.2662   18.0303 C   0  0  0  0  0  0
  -49.8089   -0.1995   14.5330 C   0  0  0  0  0  0
  -49.5676   -7.4747   19.5372 C   0  0  0  0  0  0
  -49.9187   -8.4798   17.2668 C   0  0  0  0  0  0
  -47.8886   -7.0796   17.7208 C   0  0  0  0  0  0
  -47.3832   -1.5060   16.9072 C   0  0  0  0  0  0
  -45.8977   -1.5169   16.9108 C   0  0  0  0  0  0
  -49.1829    1.4583   12.3774 C   0  0  0  0  0  0
  -45.1741   -1.1072   18.0306 C   0  0  0  0  0  0
  -45.2267   -1.9479   15.7663 C   0  0  0  0  0  0
  -50.4398    1.9908   12.6643 C   0  0  0  0  0  0
  -48.3152    2.1395   11.5239 C   0  0  0  0  0  0
  -43.7797   -1.1285   18.0061 C   0  0  0  0  0  0
  -45.8854   -0.6439   19.2623 C   0  0  0  0  0  0
  -43.8322   -1.9690   15.7418 C   0  0  0  0  0  0
  -50.8289    3.2047   12.0980 C   0  0  0  0  0  0
  -48.7043    3.3535   10.9576 C   0  0  0  0  0  0
  -43.1086   -1.5592   16.8616 C   0  0  0  0  0  0
  -49.9611    3.8859   11.2444 C   0  0  0  0  0  0
  -49.5765   -5.3479   17.1611 H   0  0  0  0  0  0
  -49.0620   -2.6262   13.2783 H   0  0  0  0  0  0
  -47.3988   -1.3478   14.8321 H   0  0  0  0  0  0
  -42.1080   -0.8010   18.8821 H   0  0  0  0  0  0
  1 23  1  0  0  0
  1 29  1  0  0  0
  2 19  2  0  0  0
  3 20  1  0  0  0
  3 42  1  0  0  0
  4 27  2  0  0  0
  5 34  1  0  0  0
  5 44  1  0  0  0
  6 12  1  0  0  0
  6 15  1  0  0  0
  6 18  1  0  0  0
  7 19  1  0  0  0
  7 22  1  0  0  0
  7 41  1  0  0  0
  8 21  1  0  0  0
  8 27  1  0  0  0
  8 43  1  0  0  0
  9 10  1  0  0  0
  9 11  1  0  0  0
  9 13  1  0  0  0
 10 12  1  0  0  0
 10 14  1  0  0  0
 11 15  1  0  0  0
 13 16  1  0  0  0
 14 17  1  0  0  0
 15 19  1  0  0  0
 16 17  1  0  0  0
 18 20  1  0  0  0
 20 21  1  0  0  0
 21 23  1  0  0  0
 22 24  1  0  0  0
 22 25  1  0  0  0
 22 26  1  0  0  0
 27 28  1  0  0  0
 28 30  2  0  0  0
 28 31  1  0  0  0
 29 32  2  0  0  0
 29 33  1  0  0  0
 30 34  1  0  0  0
 30 35  1  0  0  0
 31 36  2  0  0  0
 32 37  1  0  0  0
 33 38  2  0  0  0
 34 39  2  0  0  0
 36 39  1  0  0  0
 37 40  2  0  0  0
 38 40  1  0  0  0
M  END
>  <CHROM.0>
67.32106938,-70.92776727,-51.46717244

>  <CHROM.1>
-169.19421818,-20.85217316,-170.55630994,-179.05203513,-107.80057564,-63.27302999
-102.15654452,-123.90339633,96.80381271,-90.68664744,41.16144850,-24.83741417
-49.57477261,-2.83669099,15.74822721,0.81272417,-0.43087132,-0.63338562

>  <Name>
64143

>  <PUBCHEM_ATOM_DEF_STEREO_COUNT>
5

>  <PUBCHEM_ATOM_UDEF_STEREO_COUNT>
0

>  <PUBCHEM_BOND_DEF_STEREO_COUNT>
0

>  <PUBCHEM_BOND_UDEF_STEREO_COUNT>
0

>  <PUBCHEM_CACTVS_TAUTO_COUNT>
12

>  <PUBCHEM_COMPONENT_COUNT>
1

>  <PUBCHEM_COMPOUND_CID>
64143

>  <PUBCHEM_CONFORMER_DIVERSEORDER>
1
21
84
153
101
123
82
146
125
17
85
73
20
32
151
113
8
57
53
6
52
117
108
155
94
19
118
148
88
54
130
70
105
150
142
135
56
2
77
61
92
106
139
116
7
51
96
80
93
34
132
115
24
147
122
121
67
36
124
66
145
141
112
44
110
58
104
11
79
149
50
143
60
10
46
100
74
55
129
25
30
131
114
97
47
102
111
140
134
81
16
28
109
144
152
48
86
45
126
39
87
65
29
4
95
156
35
133
27
62
78
49
75
98
99
68
15
63
90
69
107
3
103
64
41
59
76
22
9
136
12
157
33
26
23
119
89
38
71
31
138
154
14
43
127
120
72
128
18
37
42
40
137
83
5
91
13

>  <PUBCHEM_CONFORMER_ID>
0000FA8F00000001

>  <PUBCHEM_CONFORMER_RMSD>
1.4

>  <PUBCHEM_COORDINATE_TYPE>
2
5
10

>  <PUBCHEM_EFFECTIVE_ROTOR_COUNT>
13.6

>  <PUBCHEM_FEATURE_SELFOVERLAP>
66.023

>  <PUBCHEM_HEAVY_ATOM_COUNT>
40

>  <PUBCHEM_ISOTOPIC_ATOM_COUNT>
0

>  <PUBCHEM_MMFF94_ENERGY>
106.283

>  <PUBCHEM_MMFF94_PARTIAL_CHARGES>
42
1 -0.33
12 0.27
15 0.33
18 0.27
19 0.57
2 -0.57
20 0.28
21 0.3
22 0.3
23 0.23
27 0.54
28 0.09
29 0.1
3 -0.68
30 -0.14
31 -0.15
32 -0.15
33 -0.15
34 0.08
35 0.14
36 -0.15
37 -0.15
38 -0.15
39 -0.15
4 -0.57
40 -0.15
5 -0.53
59 0.37
6 -0.81
61 0.4
64 0.37
7 -0.73
74 0.15
75 0.15
76 0.15
8 -0.73
80 0.15
81 0.15
82 0.15
83 0.15
84 0.15
85 0.45

>  <PUBCHEM_PHARMACOPHORE_FEATURES>
13
1 2 acceptor
1 3 acceptor
1 3 donor
1 4 acceptor
1 5 donor
1 6 cation
1 7 donor
1 8 donor
4 22 24 25 26 hydrophobe
6 28 30 31 34 36 39 rings
6 29 32 33 37 38 40 rings
6 6 9 10 11 12 15 rings
6 9 10 13 14 16 17 rings

>  <PUBCHEM_SHAPE_FINGERPRINT>
10032420 55 18130495444200979297
10319688 77 17470141684274524266
10721379 63 18052271596134557976
11421498 54 18270101526886733871
11991303 11 17825385439061262902
13690498 29 17703225234654346413
13911987 19 18189607414530907799
15064981 113 18187641419363593252
15439362 3 18118695322292951744
19319366 153 18342181024936020931
19958102 18 18337956809306142254
20505436 4 17987259766991243505
22393880 68 17989485238265708768
23559900 14 17977103453547379345
340366 18 17766549158792973763
4409770 3 18048885387894744490
504843 32 17969224610910731106
563151 97 18410570691006883420
6058803 2 18127403450458884667
6691757 9 18267867358440949680

>  <PUBCHEM_SHAPE_MULTIPOLES>
788.61
15.86
8.74
2.82
9.48
18.24
1.5
-18.8
9.61
4.55
-3.03
-1.39
0.57
-6.09

>  <PUBCHEM_SHAPE_SELFOVERLAP>
1639.542

>  <PUBCHEM_SHAPE_VOLUME>
450.8

>  <RI>
-6.03122e+08

>  <Rbt.Current_Directory>
/root/miniconda3/envs/rdock/share/rxdock-2013.1.1_148c5bd1-0/data/ligands/prepped_ligands/Nelfinavir

>  <Rbt.Executable>
rbdock/0.1.0

>  <Rbt.Library>
librxdock.so/0.1.0

>  <Rbt.Parameter_File>
/root/miniconda3/envs/rdock/share/rxdock-2013.1.1_148c5bd1-0/data/scripts/dock.prm

>  <Rbt.Receptor>
def.prm

>  <SCORE>
-13.424

>  <SCORE.INTER>
-18.784

>  <SCORE.INTER.CONST>
1

>  <SCORE.INTER.POLAR>
0

>  <SCORE.INTER.REPUL>
0

>  <SCORE.INTER.ROT>
10

>  <SCORE.INTER.VDW>
-34.184

>  <SCORE.INTER.norm>
-0.469599

>  <SCORE.INTRA>
6.02661

>  <SCORE.INTRA.DIHEDRAL>
2.13573

>  <SCORE.INTRA.DIHEDRAL.0>
15.8713

>  <SCORE.INTRA.POLAR>
0

>  <SCORE.INTRA.POLAR.0>
0

>  <SCORE.INTRA.REPUL>
0

>  <SCORE.INTRA.REPUL.0>
0

>  <SCORE.INTRA.VDW>
4.95875

>  <SCORE.INTRA.VDW.0>
-0.89017

>  <SCORE.INTRA.norm>
0.150665

>  <SCORE.RESTR>
0

>  <SCORE.RESTR.CAVITY>
0

>  <SCORE.RESTR.norm>
0

>  <SCORE.SYSTEM>
-0.666648

>  <SCORE.SYSTEM.CONST>
0

>  <SCORE.SYSTEM.DIHEDRAL>
0.868883

>  <SCORE.SYSTEM.POLAR>
-0.0162897

>  <SCORE.SYSTEM.VDW>
-1.0457

>  <SCORE.SYSTEM.norm>
-0.0166662

>  <SCORE.heavy>
40

>  <SCORE.norm>
-0.3356

$$$$
64143
  RxDock  02242112013D
librxdock.so/0.1.0
 44 47  0  0  0  0  0  0  0  0999 V2000
  -53.6904   -4.2675   15.2550 S   0  0  0  0  0  0
  -47.7336    0.3921   18.6859 O   0  0  0  0  0  0
  -51.2922   -1.8154   16.8854 O   0  0  0  0  0  0
  -50.4731   -6.6605   17.2359 O   0  0  0  0  0  0
  -49.6955  -10.3323   20.6901 O   0  0  0  0  0  0
  -48.7776   -1.8387   17.7852 N   0  0  0  0  0  0
  -45.7432   -0.5949   19.3807 N   0  0  0  0  0  0
  -51.8319   -5.1549   18.3593 N   0  0  0  0  0  0
  -46.3989   -2.1206   15.9906 C   0  0  0  0  0  0
  -47.8405   -2.0778   15.4517 C   0  0  0  0  0  0
  -46.3854   -2.6101   17.4495 C   0  0  0  0  0  0
  -48.7687   -1.3110   16.4123 C   0  0  0  0  0  0
  -45.6649   -0.7803   15.8128 C   0  0  0  0  0  0
  -47.8938   -1.5091   14.0241 C   0  0  0  0  0  0
  -47.4331   -1.9561   18.3629 C   0  0  0  0  0  0
  -45.7108   -0.2996   14.3654 C   0  0  0  0  0  0
  -47.1457   -0.1892   13.8640 C   0  0  0  0  0  0
  -49.5155   -3.0985   17.8811 C   0  0  0  0  0  0
  -47.0109   -0.5911   18.8246 C   0  0  0  0  0  0
  -51.0339   -2.8906   17.7913 C   0  0  0  0  0  0
  -51.8317   -4.1333   17.3334 C   0  0  0  0  0  0
  -45.0960    0.5963   19.8812 C   0  0  0  0  0  0
  -53.2709   -3.7530   16.9515 C   0  0  0  0  0  0
  -45.8643    1.1157   21.1017 C   0  0  0  0  0  0
  -43.6570    0.2538   20.2811 C   0  0  0  0  0  0
  -45.0888    1.6678   18.7848 C   0  0  0  0  0  0
  -51.1416   -6.3465   18.2173 C   0  0  0  0  0  0
  -51.2639   -7.3019   19.3482 C   0  0  0  0  0  0
  -54.4174   -5.8748   15.5478 C   0  0  0  0  0  0
  -50.3959   -8.3862   19.4760 C   0  0  0  0  0  0
  -52.2698   -7.0987   20.2930 C   0  0  0  0  0  0
  -53.6028   -6.9603   15.8701 C   0  0  0  0  0  0
  -55.7987   -6.0432   15.4534 C   0  0  0  0  0  0
  -50.5335   -9.2672   20.5486 C   0  0  0  0  0  0
  -49.3142   -8.6117   18.4677 C   0  0  0  0  0  0
  -52.4075   -7.9798   21.3656 C   0  0  0  0  0  0
  -54.1697   -8.2141   16.0982 C   0  0  0  0  0  0
  -56.3656   -7.2972   15.6816 C   0  0  0  0  0  0
  -51.5396   -9.0642   21.4933 C   0  0  0  0  0  0
  -55.5511   -8.3826   16.0038 C   0  0  0  0  0  0
  -45.2720   -1.4821   19.5289 H   0  0  0  0  0  0
  -51.0540   -2.1223   15.9939 H   0  0  0  0  0  0
  -52.3389   -4.9715   19.2208 H   0  0  0  0  0  0
  -49.6368  -10.5676   21.6320 H   0  0  0  0  0  0
  1 23  1  0  0  0
  1 29  1  0  0  0
  2 19  2  0  0  0
  3 20  1  0  0  0
  3 42  1  0  0  0
  4 27  2  0  0  0
  5 34  1  0  0  0
  5 44  1  0  0  0
  6 12  1  0  0  0
  6 15  1  0  0  0
  6 18  1  0  0  0
  7 19  1  0  0  0
  7 22  1  0  0  0
  7 41  1  0  0  0
  8 21  1  0  0  0
  8 27  1  0  0  0
  8 43  1  0  0  0
  9 10  1  0  0  0
  9 11  1  0  0  0
  9 13  1  0  0  0
 10 12  1  0  0  0
 10 14  1  0  0  0
 11 15  1  0  0  0
 13 16  1  0  0  0
 14 17  1  0  0  0
 15 19  1  0  0  0
 16 17  1  0  0  0
 18 20  1  0  0  0
 20 21  1  0  0  0
 21 23  1  0  0  0
 22 24  1  0  0  0
 22 25  1  0  0  0
 22 26  1  0  0  0
 27 28  1  0  0  0
 28 30  2  0  0  0
 28 31  1  0  0  0
 29 32  2  0  0  0
 29 33  1  0  0  0
 30 34  1  0  0  0
 30 35  1  0  0  0
 31 36  2  0  0  0
 32 37  1  0  0  0
 33 38  2  0  0  0
 34 39  2  0  0  0
 36 39  1  0  0  0
 37 40  2  0  0  0
 38 40  1  0  0  0
M  END
>  <CHROM.0>
7.51742914,-60.60911695,78.81788220

>  <CHROM.1>
92.77966524,-74.47820804,68.84819830,153.16156939,-73.88591247,66.03083150
-110.31013745,-0.60352268,35.09001631,-167.91447389,-112.24475374,15.85798918
-49.87926227,-3.95155397,17.64984611,2.59232597,0.61836331,2.40201730

>  <Name>
64143

>  <PUBCHEM_ATOM_DEF_STEREO_COUNT>
5

>  <PUBCHEM_ATOM_UDEF_STEREO_COUNT>
0

>  <PUBCHEM_BOND_DEF_STEREO_COUNT>
0

>  <PUBCHEM_BOND_UDEF_STEREO_COUNT>
0

>  <PUBCHEM_CACTVS_TAUTO_COUNT>
12

>  <PUBCHEM_COMPONENT_COUNT>
1

>  <PUBCHEM_COMPOUND_CID>
64143

>  <PUBCHEM_CONFORMER_DIVERSEORDER>
1
21
84
153
101
123
82
146
125
17
85
73
20
32
151
113
8
57
53
6
52
117
108
155
94
19
118
148
88
54
130
70
105
150
142
135
56
2
77
61
92
106
139
116
7
51
96
80
93
34
132
115
24
147
122
121
67
36
124
66
145
141
112
44
110
58
104
11
79
149
50
143
60
10
46
100
74
55
129
25
30
131
114
97
47
102
111
140
134
81
16
28
109
144
152
48
86
45
126
39
87
65
29
4
95
156
35
133
27
62
78
49
75
98
99
68
15
63
90
69
107
3
103
64
41
59
76
22
9
136
12
157
33
26
23
119
89
38
71
31
138
154
14
43
127
120
72
128
18
37
42
40
137
83
5
91
13

>  <PUBCHEM_CONFORMER_ID>
0000FA8F00000001

>  <PUBCHEM_CONFORMER_RMSD>
1.4

>  <PUBCHEM_COORDINATE_TYPE>
2
5
10

>  <PUBCHEM_EFFECTIVE_ROTOR_COUNT>
13.6

>  <PUBCHEM_FEATURE_SELFOVERLAP>
66.023

>  <PUBCHEM_HEAVY_ATOM_COUNT>
40

>  <PUBCHEM_ISOTOPIC_ATOM_COUNT>
0

>  <PUBCHEM_MMFF94_ENERGY>
106.283

>  <PUBCHEM_MMFF94_PARTIAL_CHARGES>
42
1 -0.33
12 0.27
15 0.33
18 0.27
19 0.57
2 -0.57
20 0.28
21 0.3
22 0.3
23 0.23
27 0.54
28 0.09
29 0.1
3 -0.68
30 -0.14
31 -0.15
32 -0.15
33 -0.15
34 0.08
35 0.14
36 -0.15
37 -0.15
38 -0.15
39 -0.15
4 -0.57
40 -0.15
5 -0.53
59 0.37
6 -0.81
61 0.4
64 0.37
7 -0.73
74 0.15
75 0.15
76 0.15
8 -0.73
80 0.15
81 0.15
82 0.15
83 0.15
84 0.15
85 0.45

>  <PUBCHEM_PHARMACOPHORE_FEATURES>
13
1 2 acceptor
1 3 acceptor
1 3 donor
1 4 acceptor
1 5 donor
1 6 cation
1 7 donor
1 8 donor
4 22 24 25 26 hydrophobe
6 28 30 31 34 36 39 rings
6 29 32 33 37 38 40 rings
6 6 9 10 11 12 15 rings
6 9 10 13 14 16 17 rings

>  <PUBCHEM_SHAPE_FINGERPRINT>
10032420 55 18130495444200979297
10319688 77 17470141684274524266
10721379 63 18052271596134557976
11421498 54 18270101526886733871
11991303 11 17825385439061262902
13690498 29 17703225234654346413
13911987 19 18189607414530907799
15064981 113 18187641419363593252
15439362 3 18118695322292951744
19319366 153 18342181024936020931
19958102 18 18337956809306142254
20505436 4 17987259766991243505
22393880 68 17989485238265708768
23559900 14 17977103453547379345
340366 18 17766549158792973763
4409770 3 18048885387894744490
504843 32 17969224610910731106
563151 97 18410570691006883420
6058803 2 18127403450458884667
6691757 9 18267867358440949680

>  <PUBCHEM_SHAPE_MULTIPOLES>
788.61
15.86
8.74
2.82
9.48
18.24
1.5
-18.8
9.61
4.55
-3.03
-1.39
0.57
-6.09

>  <PUBCHEM_SHAPE_SELFOVERLAP>
1639.542

>  <PUBCHEM_SHAPE_VOLUME>
450.8

>  <RI>
-6.03122e+08

>  <Rbt.Current_Directory>
/root/miniconda3/envs/rdock/share/rxdock-2013.1.1_148c5bd1-0/data/ligands/prepped_ligands/Nelfinavir

>  <Rbt.Executable>
rbdock/0.1.0

>  <Rbt.Library>
librxdock.so/0.1.0

>  <Rbt.Parameter_File>
/root/miniconda3/envs/rdock/share/rxdock-2013.1.1_148c5bd1-0/data/scripts/dock.prm

>  <Rbt.Receptor>
def.prm

>  <SCORE>
-0.77316

>  <SCORE.INTER>
-8.20848

>  <SCORE.INTER.CONST>
1

>  <SCORE.INTER.POLAR>
0

>  <SCORE.INTER.REPUL>
0.0154073

>  <SCORE.INTER.ROT>
10

>  <SCORE.INTER.VDW>
-23.6855

>  <SCORE.INTER.norm>
-0.205212

>  <SCORE.INTRA>
5.03417

>  <SCORE.INTRA.DIHEDRAL>
1.01863

>  <SCORE.INTRA.DIHEDRAL.0>
15.8713

>  <SCORE.INTRA.POLAR>
0

>  <SCORE.INTRA.POLAR.0>
0

>  <SCORE.INTRA.REPUL>
0

>  <SCORE.INTRA.REPUL.0>
0

>  <SCORE.INTRA.VDW>
4.52486

>  <SCORE.INTRA.VDW.0>
-0.89017

>  <SCORE.INTRA.norm>
0.125854

>  <SCORE.RESTR>
0.542826

>  <SCORE.RESTR.CAVITY>
0.542826

>  <SCORE.RESTR.norm>
0.0135707

>  <SCORE.SYSTEM>
1.85833

>  <SCORE.SYSTEM.CONST>
0

>  <SCORE.SYSTEM.DIHEDRAL>
4.2619

>  <SCORE.SYSTEM.POLAR>
-0.0183132

>  <SCORE.SYSTEM.VDW>
-0.210356

>  <SCORE.SYSTEM.norm>
0.0464582

>  <SCORE.heavy>
40

>  <SCORE.norm>
-0.019329

$$$$
64143
  RxDock  02242112013D
librxdock.so/0.1.0
 44 47  0  0  0  0  0  0  0  0999 V2000
  -53.0342   -4.2154   15.1096 S   0  0  0  0  0  0
  -48.2406    0.2053   16.2190 O   0  0  0  0  0  0
  -52.4705   -1.4725   18.7608 O   0  0  0  0  0  0
  -52.0382   -5.5893   18.8758 O   0  0  0  0  0  0
  -46.6523   -7.5137   17.7084 O   0  0  0  0  0  0
  -49.3766   -1.7889   18.3660 N   0  0  0  0  0  0
  -50.0703   -1.0026   15.4369 N   0  0  0  0  0  0
  -50.8534   -4.4382   17.2490 N   0  0  0  0  0  0
  -48.2748    0.8440   19.2673 C   0  0  0  0  0  0
  -47.8441   -0.4923   19.8993 C   0  0  0  0  0  0
  -49.6736    0.7146   18.6391 C   0  0  0  0  0  0
  -48.0144   -1.6560   18.9047 C   0  0  0  0  0  0
  -47.2324    1.3881   18.2753 C   0  0  0  0  0  0
  -46.4136   -0.4183   20.4583 C   0  0  0  0  0  0
  -49.8861   -0.5422   17.7818 C   0  0  0  0  0  0
  -45.8477    1.4854   18.9089 C   0  0  0  0  0  0
  -45.3981    0.1401   19.4661 C   0  0  0  0  0  0
  -50.3042   -2.3368   19.3560 C   0  0  0  0  0  0
  -49.2913   -0.4011   16.4103 C   0  0  0  0  0  0
  -51.6766   -2.6611   18.7492 C   0  0  0  0  0  0
  -51.6318   -3.2188   17.3079 C   0  0  0  0  0  0
  -49.7304   -0.9892   14.0324 C   0  0  0  0  0  0
  -53.0500   -3.4583   16.7665 C   0  0  0  0  0  0
  -48.2888   -1.4794   13.8552 C   0  0  0  0  0  0
  -50.6896   -1.9143   13.2761 C   0  0  0  0  0  0
  -49.8563    0.4408   13.4942 C   0  0  0  0  0  0
  -51.1301   -5.5324   18.0507 C   0  0  0  0  0  0
  -50.2222   -6.6970   17.8890 C   0  0  0  0  0  0
  -54.1487   -5.5937   15.3454 C   0  0  0  0  0  0
  -48.8366   -6.5378   17.8765 C   0  0  0  0  0  0
  -50.7794   -7.9681   17.7484 C   0  0  0  0  0  0
  -55.5280   -5.3912   15.2982 C   0  0  0  0  0  0
  -53.6389   -6.8712   15.5772 C   0  0  0  0  0  0
  -48.0081   -7.6494   17.7235 C   0  0  0  0  0  0
  -48.2305   -5.1785   18.0268 C   0  0  0  0  0  0
  -49.9508   -9.0798   17.5954 C   0  0  0  0  0  0
  -56.3975   -6.4662   15.4826 C   0  0  0  0  0  0
  -54.5085   -7.9462   15.7615 C   0  0  0  0  0  0
  -48.5652   -8.9205   17.5828 C   0  0  0  0  0  0
  -55.8877   -7.7437   15.7143 C   0  0  0  0  0  0
  -50.8732   -1.5562   15.7197 H   0  0  0  0  0  0
  -53.3806   -1.7279   18.5326 H   0  0  0  0  0  0
  -50.0947   -4.4925   16.5748 H   0  0  0  0  0  0
  -46.3790   -6.9690   18.4665 H   0  0  0  0  0  0
  1 23  1  0  0  0
  1 29  1  0  0  0
  2 19  2  0  0  0
  3 20  1  0  0  0
  3 42  1  0  0  0
  4 27  2  0  0  0
  5 34  1  0  0  0
  5 44  1  0  0  0
  6 12  1  0  0  0
  6 15  1  0  0  0
  6 18  1  0  0  0
  7 19  1  0  0  0
  7 22  1  0  0  0
  7 41  1  0  0  0
  8 21  1  0  0  0
  8 27  1  0  0  0
  8 43  1  0  0  0
  9 10  1  0  0  0
  9 11  1  0  0  0
  9 13  1  0  0  0
 10 12  1  0  0  0
 10 14  1  0  0  0
 11 15  1  0  0  0
 13 16  1  0  0  0
 14 17  1  0  0  0
 15 19  1  0  0  0
 16 17  1  0  0  0
 18 20  1  0  0  0
 20 21  1  0  0  0
 21 23  1  0  0  0
 22 24  1  0  0  0
 22 25  1  0  0  0
 22 26  1  0  0  0
 27 28  1  0  0  0
 28 30  2  0  0  0
 28 31  1  0  0  0
 29 32  2  0  0  0
 29 33  1  0  0  0
 30 34  1  0  0  0
 30 35  1  0  0  0
 31 36  2  0  0  0
 32 37  1  0  0  0
 33 38  2  0  0  0
 34 39  2  0  0  0
 36 39  1  0  0  0
 37 40  2  0  0  0
 38 40  1  0  0  0
M  END
>  <CHROM.0>
-159.41317162,67.77198558,61.20898398

>  <CHROM.1>
129.29712661,80.81298577,-169.57993624,48.99407850,-172.06205048,51.68726829
55.10180780,-91.63333614,-85.16666274,-179.12666439,-52.84090801,-131.30519699
-50.33023203,-3.39547356,17.14279539,2.33926206,0.53119425,2.94668020

>  <Name>
64143

>  <PUBCHEM_ATOM_DEF_STEREO_COUNT>
5

>  <PUBCHEM_ATOM_UDEF_STEREO_COUNT>
0

>  <PUBCHEM_BOND_DEF_STEREO_COUNT>
0

>  <PUBCHEM_BOND_UDEF_STEREO_COUNT>
0

>  <PUBCHEM_CACTVS_TAUTO_COUNT>
12

>  <PUBCHEM_COMPONENT_COUNT>
1

>  <PUBCHEM_COMPOUND_CID>
64143

>  <PUBCHEM_CONFORMER_DIVERSEORDER>
1
21
84
153
101
123
82
146
125
17
85
73
20
32
151
113
8
57
53
6
52
117
108
155
94
19
118
148
88
54
130
70
105
150
142
135
56
2
77
61
92
106
139
116
7
51
96
80
93
34
132
115
24
147
122
121
67
36
124
66
145
141
112
44
110
58
104
11
79
149
50
143
60
10
46
100
74
55
129
25
30
131
114
97
47
102
111
140
134
81
16
28
109
144
152
48
86
45
126
39
87
65
29
4
95
156
35
133
27
62
78
49
75
98
99
68
15
63
90
69
107
3
103
64
41
59
76
22
9
136
12
157
33
26
23
119
89
38
71
31
138
154
14
43
127
120
72
128
18
37
42
40
137
83
5
91
13

>  <PUBCHEM_CONFORMER_ID>
0000FA8F00000001

>  <PUBCHEM_CONFORMER_RMSD>
1.4

>  <PUBCHEM_COORDINATE_TYPE>
2
5
10

>  <PUBCHEM_EFFECTIVE_ROTOR_COUNT>
13.6

>  <PUBCHEM_FEATURE_SELFOVERLAP>
66.023

>  <PUBCHEM_HEAVY_ATOM_COUNT>
40

>  <PUBCHEM_ISOTOPIC_ATOM_COUNT>
0

>  <PUBCHEM_MMFF94_ENERGY>
106.283

>  <PUBCHEM_MMFF94_PARTIAL_CHARGES>
42
1 -0.33
12 0.27
15 0.33
18 0.27
19 0.57
2 -0.57
20 0.28
21 0.3
22 0.3
23 0.23
27 0.54
28 0.09
29 0.1
3 -0.68
30 -0.14
31 -0.15
32 -0.15
33 -0.15
34 0.08
35 0.14
36 -0.15
37 -0.15
38 -0.15
39 -0.15
4 -0.57
40 -0.15
5 -0.53
59 0.37
6 -0.81
61 0.4
64 0.37
7 -0.73
74 0.15
75 0.15
76 0.15
8 -0.73
80 0.15
81 0.15
82 0.15
83 0.15
84 0.15
85 0.45

>  <PUBCHEM_PHARMACOPHORE_FEATURES>
13
1 2 acceptor
1 3 acceptor
1 3 donor
1 4 acceptor
1 5 donor
1 6 cation
1 7 donor
1 8 donor
4 22 24 25 26 hydrophobe
6 28 30 31 34 36 39 rings
6 29 32 33 37 38 40 rings
6 6 9 10 11 12 15 rings
6 9 10 13 14 16 17 rings

>  <PUBCHEM_SHAPE_FINGERPRINT>
10032420 55 18130495444200979297
10319688 77 17470141684274524266
10721379 63 18052271596134557976
11421498 54 18270101526886733871
11991303 11 17825385439061262902
13690498 29 17703225234654346413
13911987 19 18189607414530907799
15064981 113 18187641419363593252
15439362 3 18118695322292951744
19319366 153 18342181024936020931
19958102 18 18337956809306142254
20505436 4 17987259766991243505
22393880 68 17989485238265708768
23559900 14 17977103453547379345
340366 18 17766549158792973763
4409770 3 18048885387894744490
504843 32 17969224610910731106
563151 97 18410570691006883420
6058803 2 18127403450458884667
6691757 9 18267867358440949680

>  <PUBCHEM_SHAPE_MULTIPOLES>
788.61
15.86
8.74
2.82
9.48
18.24
1.5
-18.8
9.61
4.55
-3.03
-1.39
0.57
-6.09

>  <PUBCHEM_SHAPE_SELFOVERLAP>
1639.542

>  <PUBCHEM_SHAPE_VOLUME>
450.8

>  <RI>
-6.03122e+08

>  <Rbt.Current_Directory>
/root/miniconda3/envs/rdock/share/rxdock-2013.1.1_148c5bd1-0/data/ligands/prepped_ligands/Nelfinavir

>  <Rbt.Executable>
rbdock/0.1.0

>  <Rbt.Library>
librxdock.so/0.1.0

>  <Rbt.Parameter_File>
/root/miniconda3/envs/rdock/share/rxdock-2013.1.1_148c5bd1-0/data/scripts/dock.prm

>  <Rbt.Receptor>
def.prm

>  <SCORE>
-10.6218

>  <SCORE.INTER>
-13.5367

>  <SCORE.INTER.CONST>
1

>  <SCORE.INTER.POLAR>
-0.102402

>  <SCORE.INTER.REPUL>
0.0150319

>  <SCORE.INTER.ROT>
10

>  <SCORE.INTER.VDW>
-28.6637

>  <SCORE.INTER.norm>
-0.338417

>  <SCORE.INTRA>
3.25182

>  <SCORE.INTRA.DIHEDRAL>
5.45507

>  <SCORE.INTRA.DIHEDRAL.0>
15.8713

>  <SCORE.INTRA.POLAR>
0

>  <SCORE.INTRA.POLAR.0>
0

>  <SCORE.INTRA.REPUL>
0

>  <SCORE.INTRA.REPUL.0>
0

>  <SCORE.INTRA.VDW>
0.524283

>  <SCORE.INTRA.VDW.0>
-0.89017

>  <SCORE.INTRA.norm>
0.0812955

>  <SCORE.RESTR>
0

>  <SCORE.RESTR.CAVITY>
0

>  <SCORE.RESTR.norm>
0

>  <SCORE.SYSTEM>
-0.336909

>  <SCORE.SYSTEM.CONST>
0

>  <SCORE.SYSTEM.DIHEDRAL>
1.23264

>  <SCORE.SYSTEM.POLAR>
-0.00386853

>  <SCORE.SYSTEM.VDW>
-0.940077

>  <SCORE.SYSTEM.norm>
-0.00842273

>  <SCORE.heavy>
40

>  <SCORE.norm>
-0.265544

$$$$
64143
  RxDock  02242112023D
librxdock.so/0.1.0
 44 47  0  0  0  0  0  0  0  0999 V2000
  -54.6555   -4.8393   15.0793 S   0  0  0  0  0  0
  -47.5603    0.0530   17.2540 O   0  0  0  0  0  0
  -51.8101   -1.9754   15.1244 O   0  0  0  0  0  0
  -51.7857   -4.9727   18.4051 O   0  0  0  0  0  0
  -47.1443   -8.3755   17.7638 O   0  0  0  0  0  0
  -48.8878   -1.9914   15.7681 N   0  0  0  0  0  0
  -49.2831   -0.3608   18.7637 N   0  0  0  0  0  0
  -51.2769   -5.4751   16.1996 N   0  0  0  0  0  0
  -46.2365   -2.9325   16.7897 C   0  0  0  0  0  0
  -46.5810   -2.9026   15.2894 C   0  0  0  0  0  0
  -47.5199   -3.0306   17.6333 C   0  0  0  0  0  0
  -47.6508   -1.8364   14.9876 C   0  0  0  0  0  0
  -45.3440   -1.7526   17.2115 C   0  0  0  0  0  0
  -45.3235   -2.7166   14.4242 C   0  0  0  0  0  0
  -48.6467   -2.0746   17.2138 C   0  0  0  0  0  0
  -44.0898   -1.6571   16.3477 C   0  0  0  0  0  0
  -44.4426   -1.5532   14.8689 C   0  0  0  0  0  0
  -49.6962   -3.1144   15.2926 C   0  0  0  0  0  0
  -48.4269   -0.6795   17.7237 C   0  0  0  0  0  0
  -51.1434   -3.0442   15.8000 C   0  0  0  0  0  0
  -51.9600   -4.3432   15.6094 C   0  0  0  0  0  0
  -49.2598    0.9136   19.4446 C   0  0  0  0  0  0
  -53.3711   -4.1975   16.2006 C   0  0  0  0  0  0
  -47.9223    1.0729   20.1763 C   0  0  0  0  0  0
  -49.4239    2.0353   18.4135 C   0  0  0  0  0  0
  -50.4090    0.9680   20.4577 C   0  0  0  0  0  0
  -51.2500   -5.6928   17.5666 C   0  0  0  0  0  0
  -50.4843   -6.8840   18.0155 C   0  0  0  0  0  0
  -54.5887   -6.5898   15.4382 C   0  0  0  0  0  0
  -49.1463   -7.0589   17.6625 C   0  0  0  0  0  0
  -51.1278   -7.8374   18.8046 C   0  0  0  0  0  0
  -55.4673   -7.4663   14.8015 C   0  0  0  0  0  0
  -53.6584   -7.0786   16.3554 C   0  0  0  0  0  0
  -48.4517   -8.1870   18.0987 C   0  0  0  0  0  0
  -48.4483   -6.0415   16.8167 C   0  0  0  0  0  0
  -50.4331   -8.9656   19.2408 C   0  0  0  0  0  0
  -55.4155   -8.8317   15.0817 C   0  0  0  0  0  0
  -53.6067   -8.4442   16.6355 C   0  0  0  0  0  0
  -49.0951   -9.1406   18.8877 C   0  0  0  0  0  0
  -54.4852   -9.3206   15.9989 C   0  0  0  0  0  0
  -50.0232   -1.0108   19.0105 H   0  0  0  0  0  0
  -51.3720   -1.1475   15.3857 H   0  0  0  0  0  0
  -50.8251   -6.1413   15.5792 H   0  0  0  0  0  0
  -47.0971   -8.9382   16.9718 H   0  0  0  0  0  0
  1 23  1  0  0  0
  1 29  1  0  0  0
  2 19  2  0  0  0
  3 20  1  0  0  0
  3 42  1  0  0  0
  4 27  2  0  0  0
  5 34  1  0  0  0
  5 44  1  0  0  0
  6 12  1  0  0  0
  6 15  1  0  0  0
  6 18  1  0  0  0
  7 19  1  0  0  0
  7 22  1  0  0  0
  7 41  1  0  0  0
  8 21  1  0  0  0
  8 27  1  0  0  0
  8 43  1  0  0  0
  9 10  1  0  0  0
  9 11  1  0  0  0
  9 13  1  0  0  0
 10 12  1  0  0  0
 10 14  1  0  0  0
 11 15  1  0  0  0
 13 16  1  0  0  0
 14 17  1  0  0  0
 15 19  1  0  0  0
 16 17  1  0  0  0
 18 20  1  0  0  0
 20 21  1  0  0  0
 21 23  1  0  0  0
 22 24  1  0  0  0
 22 25  1  0  0  0
 22 26  1  0  0  0
 27 28  1  0  0  0
 28 30  2  0  0  0
 28 31  1  0  0  0
 29 32  2  0  0  0
 29 33  1  0  0  0
 30 34  1  0  0  0
 30 35  1  0  0  0
 31 36  2  0  0  0
 32 37  1  0  0  0
 33 38  2  0  0  0
 34 39  2  0  0  0
 36 39  1  0  0  0
 37 40  2  0  0  0
 38 40  1  0  0  0
M  END
>  <CHROM.0>
36.62848358,-61.62651474,17.73598650

>  <CHROM.1>
82.18990894,178.07688599,-64.31842874,-94.93845113,-163.21360285,-64.67540452
76.00564426,-55.68564006,71.20199515,176.08416969,-101.70307695,-123.46001187
-49.98567434,-4.08182889,16.88526452,2.30230012,0.11423373,-3.10252120

>  <Name>
64143

>  <PUBCHEM_ATOM_DEF_STEREO_COUNT>
5

>  <PUBCHEM_ATOM_UDEF_STEREO_COUNT>
0

>  <PUBCHEM_BOND_DEF_STEREO_COUNT>
0

>  <PUBCHEM_BOND_UDEF_STEREO_COUNT>
0

>  <PUBCHEM_CACTVS_TAUTO_COUNT>
12

>  <PUBCHEM_COMPONENT_COUNT>
1

>  <PUBCHEM_COMPOUND_CID>
64143

>  <PUBCHEM_CONFORMER_DIVERSEORDER>
1
21
84
153
101
123
82
146
125
17
85
73
20
32
151
113
8
57
53
6
52
117
108
155
94
19
118
148
88
54
130
70
105
150
142
135
56
2
77
61
92
106
139
116
7
51
96
80
93
34
132
115
24
147
122
121
67
36
124
66
145
141
112
44
110
58
104
11
79
149
50
143
60
10
46
100
74
55
129
25
30
131
114
97
47
102
111
140
134
81
16
28
109
144
152
48
86
45
126
39
87
65
29
4
95
156
35
133
27
62
78
49
75
98
99
68
15
63
90
69
107
3
103
64
41
59
76
22
9
136
12
157
33
26
23
119
89
38
71
31
138
154
14
43
127
120
72
128
18
37
42
40
137
83
5
91
13

>  <PUBCHEM_CONFORMER_ID>
0000FA8F00000001

>  <PUBCHEM_CONFORMER_RMSD>
1.4

>  <PUBCHEM_COORDINATE_TYPE>
2
5
10

>  <PUBCHEM_EFFECTIVE_ROTOR_COUNT>
13.6

>  <PUBCHEM_FEATURE_SELFOVERLAP>
66.023

>  <PUBCHEM_HEAVY_ATOM_COUNT>
40

>  <PUBCHEM_ISOTOPIC_ATOM_COUNT>
0

>  <PUBCHEM_MMFF94_ENERGY>
106.283

>  <PUBCHEM_MMFF94_PARTIAL_CHARGES>
42
1 -0.33
12 0.27
15 0.33
18 0.27
19 0.57
2 -0.57
20 0.28
21 0.3
22 0.3
23 0.23
27 0.54
28 0.09
29 0.1
3 -0.68
30 -0.14
31 -0.15
32 -0.15
33 -0.15
34 0.08
35 0.14
36 -0.15
37 -0.15
38 -0.15
39 -0.15
4 -0.57
40 -0.15
5 -0.53
59 0.37
6 -0.81
61 0.4
64 0.37
7 -0.73
74 0.15
75 0.15
76 0.15
8 -0.73
80 0.15
81 0.15
82 0.15
83 0.15
84 0.15
85 0.45

>  <PUBCHEM_PHARMACOPHORE_FEATURES>
13
1 2 acceptor
1 3 acceptor
1 3 donor
1 4 acceptor
1 5 donor
1 6 cation
1 7 donor
1 8 donor
4 22 24 25 26 hydrophobe
6 28 30 31 34 36 39 rings
6 29 32 33 37 38 40 rings
6 6 9 10 11 12 15 rings
6 9 10 13 14 16 17 rings

>  <PUBCHEM_SHAPE_FINGERPRINT>
10032420 55 18130495444200979297
10319688 77 17470141684274524266
10721379 63 18052271596134557976
11421498 54 18270101526886733871
11991303 11 17825385439061262902
13690498 29 17703225234654346413
13911987 19 18189607414530907799
15064981 113 18187641419363593252
15439362 3 18118695322292951744
19319366 153 18342181024936020931
19958102 18 18337956809306142254
20505436 4 17987259766991243505
22393880 68 17989485238265708768
23559900 14 17977103453547379345
340366 18 17766549158792973763
4409770 3 18048885387894744490
504843 32 17969224610910731106
563151 97 18410570691006883420
6058803 2 18127403450458884667
6691757 9 18267867358440949680

>  <PUBCHEM_SHAPE_MULTIPOLES>
788.61
15.86
8.74
2.82
9.48
18.24
1.5
-18.8
9.61
4.55
-3.03
-1.39
0.57
-6.09

>  <PUBCHEM_SHAPE_SELFOVERLAP>
1639.542

>  <PUBCHEM_SHAPE_VOLUME>
450.8

>  <RI>
-6.03122e+08

>  <Rbt.Current_Directory>
/root/miniconda3/envs/rdock/share/rxdock-2013.1.1_148c5bd1-0/data/ligands/prepped_ligands/Nelfinavir

>  <Rbt.Executable>
rbdock/0.1.0

>  <Rbt.Library>
librxdock.so/0.1.0

>  <Rbt.Parameter_File>
/root/miniconda3/envs/rdock/share/rxdock-2013.1.1_148c5bd1-0/data/scripts/dock.prm

>  <Rbt.Receptor>
def.prm

>  <SCORE>
-10.7774

>  <SCORE.INTER>
-16.9815

>  <SCORE.INTER.CONST>
1

>  <SCORE.INTER.POLAR>
-0.938083

>  <SCORE.INTER.REPUL>
0.00651615

>  <SCORE.INTER.ROT>
10

>  <SCORE.INTER.VDW>
-29.2246

>  <SCORE.INTER.norm>
-0.424536

>  <SCORE.INTRA>
3.79224

>  <SCORE.INTRA.DIHEDRAL>
10.2706

>  <SCORE.INTRA.DIHEDRAL.0>
15.8713

>  <SCORE.INTRA.POLAR>
0

>  <SCORE.INTRA.POLAR.0>
0

>  <SCORE.INTRA.REPUL>
0

>  <SCORE.INTRA.REPUL.0>
0

>  <SCORE.INTRA.VDW>
-1.34308

>  <SCORE.INTRA.VDW.0>
-0.89017

>  <SCORE.INTRA.norm>
0.0948059

>  <SCORE.RESTR>
0.827293

>  <SCORE.RESTR.CAVITY>
0.827293

>  <SCORE.RESTR.norm>
0.0206823

>  <SCORE.SYSTEM>
1.5845

>  <SCORE.SYSTEM.CONST>
0

>  <SCORE.SYSTEM.DIHEDRAL>
4.10455

>  <SCORE.SYSTEM.VDW>
-0.467773

>  <SCORE.SYSTEM.norm>
0.0396125

>  <SCORE.heavy>
40

>  <SCORE.norm>
-0.269436

$$$$
64143
  RxDock  02242112023D
librxdock.so/0.1.0
 44 47  0  0  0  0  0  0  0  0999 V2000
  -44.1994   -0.3788   16.8813 S   0  0  0  0  0  0
  -49.1935   -6.6850   16.2839 O   0  0  0  0  0  0
  -46.0594   -3.3065   13.8153 O   0  0  0  0  0  0
  -48.6826   -0.2486   15.1604 O   0  0  0  0  0  0
  -49.0114    1.6950   20.6208 O   0  0  0  0  0  0
  -48.9563   -4.2940   15.2219 N   0  0  0  0  0  0
  -48.7252   -5.9703   18.4492 N   0  0  0  0  0  0
  -47.2411   -1.2827   16.6531 N   0  0  0  0  0  0
  -51.3198   -3.5472   16.8997 C   0  0  0  0  0  0
  -51.3243   -3.4264   15.3648 C   0  0  0  0  0  0
  -49.8800   -3.4808   17.4391 C   0  0  0  0  0  0
  -50.3358   -4.4211   14.7277 C   0  0  0  0  0  0
  -52.0764   -4.7922   17.3935 C   0  0  0  0  0  0
  -52.7425   -3.5772   14.7900 C   0  0  0  0  0  0
  -48.8642   -4.3529   16.6859 C   0  0  0  0  0  0
  -53.4923   -4.8530   16.8283 C   0  0  0  0  0  0
  -53.4828   -4.8077   15.3051 C   0  0  0  0  0  0
  -48.2930   -3.1035   14.6893 C   0  0  0  0  0  0
  -48.9425   -5.7960   17.0932 C   0  0  0  0  0  0
  -46.7941   -3.0769   15.0198 C   0  0  0  0  0  0
  -46.2969   -1.7634   15.6664 C   0  0  0  0  0  0
  -48.7689   -7.2611   19.0973 C   0  0  0  0  0  0
  -44.9081   -1.9520   16.2968 C   0  0  0  0  0  0
  -47.6771   -8.1614   18.5079 C   0  0  0  0  0  0
  -48.5330   -7.0753   20.5999 C   0  0  0  0  0  0
  -50.1428   -7.8996   18.8629 C   0  0  0  0  0  0
  -48.3679   -0.5566   16.3070 C   0  0  0  0  0  0
  -49.2227   -0.1134   17.4383 C   0  0  0  0  0  0
  -43.9057   -0.7482   18.6061 C   0  0  0  0  0  0
  -48.6886    0.5967   18.5134 C   0  0  0  0  0  0
  -50.5833   -0.4195   17.4117 C   0  0  0  0  0  0
  -44.3509    0.1311   19.5932 C   0  0  0  0  0  0
  -43.2311   -1.9152   18.9644 C   0  0  0  0  0  0
  -49.5149    1.0009   19.5619 C   0  0  0  0  0  0
  -47.2307    0.9295   18.5501 C   0  0  0  0  0  0
  -51.4097   -0.0154   18.4603 C   0  0  0  0  0  0
  -44.1216   -0.1567   20.9386 C   0  0  0  0  0  0
  -43.0018   -2.2030   20.3099 C   0  0  0  0  0  0
  -50.8756    0.6946   19.5354 C   0  0  0  0  0  0
  -43.4469   -1.3238   21.2969 C   0  0  0  0  0  0
  -48.4349   -5.1742   19.0088 H   0  0  0  0  0  0
  -45.1156   -3.3259   14.0491 H   0  0  0  0  0  0
  -47.0758   -1.5125   17.6292 H   0  0  0  0  0  0
  -48.1664    1.2955   20.8899 H   0  0  0  0  0  0
  1 23  1  0  0  0
  1 29  1  0  0  0
  2 19  2  0  0  0
  3 20  1  0  0  0
  3 42  1  0  0  0
  4 27  2  0  0  0
  5 34  1  0  0  0
  5 44  1  0  0  0
  6 12  1  0  0  0
  6 15  1  0  0  0
  6 18  1  0  0  0
  7 19  1  0  0  0
  7 22  1  0  0  0
  7 41  1  0  0  0
  8 21  1  0  0  0
  8 27  1  0  0  0
  8 43  1  0  0  0
  9 10  1  0  0  0
  9 11  1  0  0  0
  9 13  1  0  0  0
 10 12  1  0  0  0
 10 14  1  0  0  0
 11 15  1  0  0  0
 13 16  1  0  0  0
 14 17  1  0  0  0
 15 19  1  0  0  0
 16 17  1  0  0  0
 18 20  1  0  0  0
 20 21  1  0  0  0
 21 23  1  0  0  0
 22 24  1  0  0  0
 22 25  1  0  0  0
 22 26  1  0  0  0
 27 28  1  0  0  0
 28 30  2  0  0  0
 28 31  1  0  0  0
 29 32  2  0  0  0
 29 33  1  0  0  0
 30 34  1  0  0  0
 30 35  1  0  0  0
 31 36  2  0  0  0
 32 37  1  0  0  0
 33 38  2  0  0  0
 34 39  2  0  0  0
 36 39  1  0  0  0
 37 40  2  0  0  0
 38 40  1  0  0  0
M  END
>  <CHROM.0>
103.01793502,-179.11653821,-59.96746963

>  <CHROM.1>
123.08714792,-130.33468062,-177.52499070,-42.99814072,-171.07888189,61.93180924
-81.86198516,-7.28352990,109.21235129,163.46085087,-63.73122049,-125.82644874
-48.23280018,-2.67859648,17.44657650,-0.68094493,0.30121796,-3.08715794

>  <Name>
64143

>  <PUBCHEM_ATOM_DEF_STEREO_COUNT>
5

>  <PUBCHEM_ATOM_UDEF_STEREO_COUNT>
0

>  <PUBCHEM_BOND_DEF_STEREO_COUNT>
0

>  <PUBCHEM_BOND_UDEF_STEREO_COUNT>
0

>  <PUBCHEM_CACTVS_TAUTO_COUNT>
12

>  <PUBCHEM_COMPONENT_COUNT>
1

>  <PUBCHEM_COMPOUND_CID>
64143

>  <PUBCHEM_CONFORMER_DIVERSEORDER>
1
21
84
153
101
123
82
146
125
17
85
73
20
32
151
113
8
57
53
6
52
117
108
155
94
19
118
148
88
54
130
70
105
150
142
135
56
2
77
61
92
106
139
116
7
51
96
80
93
34
132
115
24
147
122
121
67
36
124
66
145
141
112
44
110
58
104
11
79
149
50
143
60
10
46
100
74
55
129
25
30
131
114
97
47
102
111
140
134
81
16
28
109
144
152
48
86
45
126
39
87
65
29
4
95
156
35
133
27
62
78
49
75
98
99
68
15
63
90
69
107
3
103
64
41
59
76
22
9
136
12
157
33
26
23
119
89
38
71
31
138
154
14
43
127
120
72
128
18
37
42
40
137
83
5
91
13

>  <PUBCHEM_CONFORMER_ID>
0000FA8F00000001

>  <PUBCHEM_CONFORMER_RMSD>
1.4

>  <PUBCHEM_COORDINATE_TYPE>
2
5
10

>  <PUBCHEM_EFFECTIVE_ROTOR_COUNT>
13.6

>  <PUBCHEM_FEATURE_SELFOVERLAP>
66.023

>  <PUBCHEM_HEAVY_ATOM_COUNT>
40

>  <PUBCHEM_ISOTOPIC_ATOM_COUNT>
0

>  <PUBCHEM_MMFF94_ENERGY>
106.283

>  <PUBCHEM_MMFF94_PARTIAL_CHARGES>
42
1 -0.33
12 0.27
15 0.33
18 0.27
19 0.57
2 -0.57
20 0.28
21 0.3
22 0.3
23 0.23
27 0.54
28 0.09
29 0.1
3 -0.68
30 -0.14
31 -0.15
32 -0.15
33 -0.15
34 0.08
35 0.14
36 -0.15
37 -0.15
38 -0.15
39 -0.15
4 -0.57
40 -0.15
5 -0.53
59 0.37
6 -0.81
61 0.4
64 0.37
7 -0.73
74 0.15
75 0.15
76 0.15
8 -0.73
80 0.15
81 0.15
82 0.15
83 0.15
84 0.15
85 0.45

>  <PUBCHEM_PHARMACOPHORE_FEATURES>
13
1 2 acceptor
1 3 acceptor
1 3 donor
1 4 acceptor
1 5 donor
1 6 cation
1 7 donor
1 8 donor
4 22 24 25 26 hydrophobe
6 28 30 31 34 36 39 rings
6 29 32 33 37 38 40 rings
6 6 9 10 11 12 15 rings
6 9 10 13 14 16 17 rings

>  <PUBCHEM_SHAPE_FINGERPRINT>
10032420 55 18130495444200979297
10319688 77 17470141684274524266
10721379 63 18052271596134557976
11421498 54 18270101526886733871
11991303 11 17825385439061262902
13690498 29 17703225234654346413
13911987 19 18189607414530907799
15064981 113 18187641419363593252
15439362 3 18118695322292951744
19319366 153 18342181024936020931
19958102 18 18337956809306142254
20505436 4 17987259766991243505
22393880 68 17989485238265708768
23559900 14 17977103453547379345
340366 18 17766549158792973763
4409770 3 18048885387894744490
504843 32 17969224610910731106
563151 97 18410570691006883420
6058803 2 18127403450458884667
6691757 9 18267867358440949680

>  <PUBCHEM_SHAPE_MULTIPOLES>
788.61
15.86
8.74
2.82
9.48
18.24
1.5
-18.8
9.61
4.55
-3.03
-1.39
0.57
-6.09

>  <PUBCHEM_SHAPE_SELFOVERLAP>
1639.542

>  <PUBCHEM_SHAPE_VOLUME>
450.8

>  <RI>
-6.03122e+08

>  <Rbt.Current_Directory>
/root/miniconda3/envs/rdock/share/rxdock-2013.1.1_148c5bd1-0/data/ligands/prepped_ligands/Nelfinavir

>  <Rbt.Executable>
rbdock/0.1.0

>  <Rbt.Library>
librxdock.so/0.1.0

>  <Rbt.Parameter_File>
/root/miniconda3/envs/rdock/share/rxdock-2013.1.1_148c5bd1-0/data/scripts/dock.prm

>  <Rbt.Receptor>
def.prm

>  <SCORE>
-7.61946

>  <SCORE.INTER>
-10.7446

>  <SCORE.INTER.CONST>
1

>  <SCORE.INTER.POLAR>
-0.155749

>  <SCORE.INTER.REPUL>
0.00226943

>  <SCORE.INTER.ROT>
10

>  <SCORE.INTER.VDW>
-25.6264

>  <SCORE.INTER.norm>
-0.268615

>  <SCORE.INTRA>
1.8756

>  <SCORE.INTRA.DIHEDRAL>
8.22356

>  <SCORE.INTRA.DIHEDRAL.0>
15.8713

>  <SCORE.INTRA.POLAR>
0

>  <SCORE.INTRA.POLAR.0>
0

>  <SCORE.INTRA.REPUL>
0

>  <SCORE.INTRA.REPUL.0>
0

>  <SCORE.INTRA.VDW>
-2.23618

>  <SCORE.INTRA.VDW.0>
-0.89017

>  <SCORE.INTRA.norm>
0.04689

>  <SCORE.RESTR>
0.279793

>  <SCORE.RESTR.CAVITY>
0.279793

>  <SCORE.RESTR.norm>
0.00699483

>  <SCORE.SYSTEM>
0.969754

>  <SCORE.SYSTEM.CONST>
0

>  <SCORE.SYSTEM.DIHEDRAL>
2.92701

>  <SCORE.SYSTEM.POLAR>
-0.000859261

>  <SCORE.SYSTEM.VDW>
-0.490829

>  <SCORE.SYSTEM.norm>
0.0242439

>  <SCORE.heavy>
40

>  <SCORE.norm>
-0.190486

$$$$
64143
  RxDock  02242112023D
librxdock.so/0.1.0
 44 47  0  0  0  0  0  0  0  0999 V2000
  -48.9439    1.5676   20.3991 S   0  0  0  0  0  0
  -53.8847   -3.9218   19.6337 O   0  0  0  0  0  0
  -52.0850   -0.3517   18.3083 O   0  0  0  0  0  0
  -47.4976   -1.7586   19.3230 O   0  0  0  0  0  0
  -45.3483   -2.9471   14.0807 O   0  0  0  0  0  0
  -51.1019   -2.9439   17.8680 N   0  0  0  0  0  0
  -51.7238   -4.7834   19.7163 N   0  0  0  0  0  0
  -48.4595   -0.5121   17.6211 N   0  0  0  0  0  0
  -51.4017   -5.6265   16.5749 C   0  0  0  0  0  0
  -50.0556   -4.8813   16.6301 C   0  0  0  0  0  0
  -52.5709   -4.6308   16.6737 C   0  0  0  0  0  0
  -50.0029   -3.9208   17.8331 C   0  0  0  0  0  0
  -51.4953   -6.7496   17.6220 C   0  0  0  0  0  0
  -48.8680   -5.8580   16.6216 C   0  0  0  0  0  0
  -52.4271   -3.5684   17.7738 C   0  0  0  0  0  0
  -50.3149   -7.7116   17.5244 C   0  0  0  0  0  0
  -48.9876   -6.9743   17.6545 C   0  0  0  0  0  0
  -50.9304   -1.8931   16.8643 C   0  0  0  0  0  0
  -52.7792   -4.1053   19.1311 C   0  0  0  0  0  0
  -50.9229   -0.4901   17.4875 C   0  0  0  0  0  0
  -49.6708   -0.1644   18.3340 C   0  0  0  0  0  0
  -51.7975   -5.3765   21.0321 C   0  0  0  0  0  0
  -49.6510    1.3181   18.7388 C   0  0  0  0  0  0
  -50.3798   -5.6694   21.5361 C   0  0  0  0  0  0
  -52.4949   -4.3988   21.9837 C   0  0  0  0  0  0
  -52.5952   -6.6834   20.9548 C   0  0  0  0  0  0
  -47.4649   -1.2906   18.1878 C   0  0  0  0  0  0
  -46.2729   -1.5355   17.3358 C   0  0  0  0  0  0
  -47.1934    1.4466   20.0542 C   0  0  0  0  0  0
  -46.3902   -2.1402   16.0845 C   0  0  0  0  0  0
  -45.0189   -1.1481   17.8083 C   0  0  0  0  0  0
  -46.6552    2.0947   18.9426 C   0  0  0  0  0  0
  -46.3664    0.7036   20.8965 C   0  0  0  0  0  0
  -45.2537   -2.3574   15.3054 C   0  0  0  0  0  0
  -47.7309   -2.5587   15.5697 C   0  0  0  0  0  0
  -43.8824   -1.3654   17.0293 C   0  0  0  0  0  0
  -45.2899    2.0001   18.6733 C   0  0  0  0  0  0
  -45.0010    0.6089   20.6272 C   0  0  0  0  0  0
  -43.9997   -1.9702   15.7780 C   0  0  0  0  0  0
  -44.4628    1.2570   19.5156 C   0  0  0  0  0  0
  -50.8840   -4.9539   19.1716 H   0  0  0  0  0  0
  -52.8620   -0.4372   17.7298 H   0  0  0  0  0  0
  -48.3558   -0.1895   16.6629 H   0  0  0  0  0  0
  -45.9733   -3.6906   14.1333 H   0  0  0  0  0  0
  1 23  1  0  0  0
  1 29  1  0  0  0
  2 19  2  0  0  0
  3 20  1  0  0  0
  3 42  1  0  0  0
  4 27  2  0  0  0
  5 34  1  0  0  0
  5 44  1  0  0  0
  6 12  1  0  0  0
  6 15  1  0  0  0
  6 18  1  0  0  0
  7 19  1  0  0  0
  7 22  1  0  0  0
  7 41  1  0  0  0
  8 21  1  0  0  0
  8 27  1  0  0  0
  8 43  1  0  0  0
  9 10  1  0  0  0
  9 11  1  0  0  0
  9 13  1  0  0  0
 10 12  1  0  0  0
 10 14  1  0  0  0
 11 15  1  0  0  0
 13 16  1  0  0  0
 14 17  1  0  0  0
 15 19  1  0  0  0
 16 17  1  0  0  0
 18 20  1  0  0  0
 20 21  1  0  0  0
 21 23  1  0  0  0
 22 24  1  0  0  0
 22 25  1  0  0  0
 22 26  1  0  0  0
 27 28  1  0  0  0
 28 30  2  0  0  0
 28 31  1  0  0  0
 29 32  2  0  0  0
 29 33  1  0  0  0
 30 34  1  0  0  0
 30 35  1  0  0  0
 31 36  2  0  0  0
 32 37  1  0  0  0
 33 38  2  0  0  0
 34 39  2  0  0  0
 36 39  1  0  0  0
 37 40  2  0  0  0
 38 40  1  0  0  0
M  END
>  <CHROM.0>
171.45618079,64.44981281,-179.56355947

>  <CHROM.1>
78.76495354,44.06448822,-62.27589701,-42.07173521,-123.32333401,-163.34849354
-128.97322437,133.95991830,-52.05122988,170.06527477,-91.63017924,123.18729270
-49.01895942,-2.40795768,18.31317972,0.58938184,0.52049838,0.54155422

>  <Name>
64143

>  <PUBCHEM_ATOM_DEF_STEREO_COUNT>
5

>  <PUBCHEM_ATOM_UDEF_STEREO_COUNT>
0

>  <PUBCHEM_BOND_DEF_STEREO_COUNT>
0

>  <PUBCHEM_BOND_UDEF_STEREO_COUNT>
0

>  <PUBCHEM_CACTVS_TAUTO_COUNT>
12

>  <PUBCHEM_COMPONENT_COUNT>
1

>  <PUBCHEM_COMPOUND_CID>
64143

>  <PUBCHEM_CONFORMER_DIVERSEORDER>
1
21
84
153
101
123
82
146
125
17
85
73
20
32
151
113
8
57
53
6
52
117
108
155
94
19
118
148
88
54
130
70
105
150
142
135
56
2
77
61
92
106
139
116
7
51
96
80
93
34
132
115
24
147
122
121
67
36
124
66
145
141
112
44
110
58
104
11
79
149
50
143
60
10
46
100
74
55
129
25
30
131
114
97
47
102
111
140
134
81
16
28
109
144
152
48
86
45
126
39
87
65
29
4
95
156
35
133
27
62
78
49
75
98
99
68
15
63
90
69
107
3
103
64
41
59
76
22
9
136
12
157
33
26
23
119
89
38
71
31
138
154
14
43
127
120
72
128
18
37
42
40
137
83
5
91
13

>  <PUBCHEM_CONFORMER_ID>
0000FA8F00000001

>  <PUBCHEM_CONFORMER_RMSD>
1.4

>  <PUBCHEM_COORDINATE_TYPE>
2
5
10

>  <PUBCHEM_EFFECTIVE_ROTOR_COUNT>
13.6

>  <PUBCHEM_FEATURE_SELFOVERLAP>
66.023

>  <PUBCHEM_HEAVY_ATOM_COUNT>
40

>  <PUBCHEM_ISOTOPIC_ATOM_COUNT>
0

>  <PUBCHEM_MMFF94_ENERGY>
106.283

>  <PUBCHEM_MMFF94_PARTIAL_CHARGES>
42
1 -0.33
12 0.27
15 0.33
18 0.27
19 0.57
2 -0.57
20 0.28
21 0.3
22 0.3
23 0.23
27 0.54
28 0.09
29 0.1
3 -0.68
30 -0.14
31 -0.15
32 -0.15
33 -0.15
34 0.08
35 0.14
36 -0.15
37 -0.15
38 -0.15
39 -0.15
4 -0.57
40 -0.15
5 -0.53
59 0.37
6 -0.81
61 0.4
64 0.37
7 -0.73
74 0.15
75 0.15
76 0.15
8 -0.73
80 0.15
81 0.15
82 0.15
83 0.15
84 0.15
85 0.45

>  <PUBCHEM_PHARMACOPHORE_FEATURES>
13
1 2 acceptor
1 3 acceptor
1 3 donor
1 4 acceptor
1 5 donor
1 6 cation
1 7 donor
1 8 donor
4 22 24 25 26 hydrophobe
6 28 30 31 34 36 39 rings
6 29 32 33 37 38 40 rings
6 6 9 10 11 12 15 rings
6 9 10 13 14 16 17 rings

>  <PUBCHEM_SHAPE_FINGERPRINT>
10032420 55 18130495444200979297
10319688 77 17470141684274524266
10721379 63 18052271596134557976
11421498 54 18270101526886733871
11991303 11 17825385439061262902
13690498 29 17703225234654346413
13911987 19 18189607414530907799
15064981 113 18187641419363593252
15439362 3 18118695322292951744
19319366 153 18342181024936020931
19958102 18 18337956809306142254
20505436 4 17987259766991243505
22393880 68 17989485238265708768
23559900 14 17977103453547379345
340366 18 17766549158792973763
4409770 3 18048885387894744490
504843 32 17969224610910731106
563151 97 18410570691006883420
6058803 2 18127403450458884667
6691757 9 18267867358440949680

>  <PUBCHEM_SHAPE_MULTIPOLES>
788.61
15.86
8.74
2.82
9.48
18.24
1.5
-18.8
9.61
4.55
-3.03
-1.39
0.57
-6.09

>  <PUBCHEM_SHAPE_SELFOVERLAP>
1639.542

>  <PUBCHEM_SHAPE_VOLUME>
450.8

>  <RI>
-6.03122e+08

>  <Rbt.Current_Directory>
/root/miniconda3/envs/rdock/share/rxdock-2013.1.1_148c5bd1-0/data/ligands/prepped_ligands/Nelfinavir

>  <Rbt.Executable>
rbdock/0.1.0

>  <Rbt.Library>
librxdock.so/0.1.0

>  <Rbt.Parameter_File>
/root/miniconda3/envs/rdock/share/rxdock-2013.1.1_148c5bd1-0/data/scripts/dock.prm

>  <Rbt.Receptor>
def.prm

>  <SCORE>
-4.88807

>  <SCORE.INTER>
-12.4058

>  <SCORE.INTER.CONST>
1

>  <SCORE.INTER.POLAR>
-1.26737

>  <SCORE.INTER.REPUL>
0

>  <SCORE.INTER.ROT>
10

>  <SCORE.INTER.VDW>
-23.4967

>  <SCORE.INTER.norm>
-0.310144

>  <SCORE.INTRA>
8.42445

>  <SCORE.INTRA.DIHEDRAL>
7.31624

>  <SCORE.INTRA.DIHEDRAL.0>
15.8713

>  <SCORE.INTRA.POLAR>
0

>  <SCORE.INTRA.POLAR.0>
0

>  <SCORE.INTRA.REPUL>
0

>  <SCORE.INTRA.REPUL.0>
0

>  <SCORE.INTRA.VDW>
4.76633

>  <SCORE.INTRA.VDW.0>
-0.89017

>  <SCORE.INTRA.norm>
0.210611

>  <SCORE.RESTR>
0.00187676

>  <SCORE.RESTR.CAVITY>
0.00187676

>  <SCORE.RESTR.norm>
4.6919e-05

>  <SCORE.SYSTEM>
-0.908635

>  <SCORE.SYSTEM.CONST>
0

>  <SCORE.SYSTEM.DIHEDRAL>
0.280814

>  <SCORE.SYSTEM.POLAR>
-0.00307324

>  <SCORE.SYSTEM.VDW>
-1.03859

>  <SCORE.SYSTEM.norm>
-0.0227159

>  <SCORE.heavy>
40

>  <SCORE.norm>
-0.122202

$$$$
64143
  RxDock  02242112023D
librxdock.so/0.1.0
 44 47  0  0  0  0  0  0  0  0999 V2000
  -48.9710   -2.3448   14.3375 S   0  0  0  0  0  0
  -53.0608   -7.3377   17.5688 O   0  0  0  0  0  0
  -52.5629   -1.8421   17.8651 O   0  0  0  0  0  0
  -47.6868   -1.4202   17.1697 O   0  0  0  0  0  0
  -45.2665    2.2847   19.7459 O   0  0  0  0  0  0
  -51.7070   -5.0012   18.2939 N   0  0  0  0  0  0
  -53.6098   -6.1908   15.6189 N   0  0  0  0  0  0
  -49.9137   -0.9274   17.5860 N   0  0  0  0  0  0
  -49.7016   -7.0325   17.3937 C   0  0  0  0  0  0
  -49.6906   -6.4320   18.8114 C   0  0  0  0  0  0
  -50.3912   -6.0718   16.4090 C   0  0  0  0  0  0
  -51.0981   -5.9630   19.2254 C   0  0  0  0  0  0
  -50.3077   -8.4460   17.3588 C   0  0  0  0  0  0
  -49.0856   -7.4079   19.8341 C   0  0  0  0  0  0
  -51.7176   -5.4765   16.9050 C   0  0  0  0  0  0
  -49.6278   -9.3763   18.3590 C   0  0  0  0  0  0
  -49.6871   -8.8085   19.7719 C   0  0  0  0  0  0
  -51.0986   -3.6751   18.4035 C   0  0  0  0  0  0
  -52.8618   -6.4376   16.7573 C   0  0  0  0  0  0
  -51.5847   -2.7203   17.3039 C   0  0  0  0  0  0
  -50.4724   -1.8737   16.6433 C   0  0  0  0  0  0
  -54.7522   -6.9883   15.2354 C   0  0  0  0  0  0
  -49.3685   -2.7719   16.0633 C   0  0  0  0  0  0
  -55.9765   -6.5408   16.0420 C   0  0  0  0  0  0
  -55.0181   -6.7952   13.7388 C   0  0  0  0  0  0
  -54.4590   -8.4652   15.5239 C   0  0  0  0  0  0
  -48.5490   -0.7824   17.7683 C   0  0  0  0  0  0
  -48.1367    0.2122   18.7919 C   0  0  0  0  0  0
  -47.2439   -1.9028   14.4767 C   0  0  0  0  0  0
  -46.8646    0.7839   18.7736 C   0  0  0  0  0  0
  -49.0489    0.5722   19.7839 C   0  0  0  0  0  0
  -46.2709   -2.9008   14.5312 C   0  0  0  0  0  0
  -46.8698   -0.5603   14.5314 C   0  0  0  0  0  0
  -46.5047    1.7157   19.7470 C   0  0  0  0  0  0
  -45.8801    0.4039   17.7134 C   0  0  0  0  0  0
  -48.6889    1.5040   20.7575 C   0  0  0  0  0  0
  -44.9237   -2.5561   14.6401 C   0  0  0  0  0  0
  -45.5225   -0.2156   14.6403 C   0  0  0  0  0  0
  -47.4167    2.0756   20.7392 C   0  0  0  0  0  0
  -44.5496   -1.2135   14.6948 C   0  0  0  0  0  0
  -53.4099   -5.3621   15.0671 H   0  0  0  0  0  0
  -53.4316   -2.2651   17.7547 H   0  0  0  0  0  0
  -50.5528   -0.3357   18.1098 H   0  0  0  0  0  0
  -44.6688    1.7464   20.2927 H   0  0  0  0  0  0
  1 23  1  0  0  0
  1 29  1  0  0  0
  2 19  2  0  0  0
  3 20  1  0  0  0
  3 42  1  0  0  0
  4 27  2  0  0  0
  5 34  1  0  0  0
  5 44  1  0  0  0
  6 12  1  0  0  0
  6 15  1  0  0  0
  6 18  1  0  0  0
  7 19  1  0  0  0
  7 22  1  0  0  0
  7 41  1  0  0  0
  8 21  1  0  0  0
  8 27  1  0  0  0
  8 43  1  0  0  0
  9 10  1  0  0  0
  9 11  1  0  0  0
  9 13  1  0  0  0
 10 12  1  0  0  0
 10 14  1  0  0  0
 11 15  1  0  0  0
 13 16  1  0  0  0
 14 17  1  0  0  0
 15 19  1  0  0  0
 16 17  1  0  0  0
 18 20  1  0  0  0
 20 21  1  0  0  0
 21 23  1  0  0  0
 22 24  1  0  0  0
 22 25  1  0  0  0
 22 26  1  0  0  0
 27 28  1  0  0  0
 28 30  2  0  0  0
 28 31  1  0  0  0
 29 32  2  0  0  0
 29 33  1  0  0  0
 30 34  1  0  0  0
 30 35  1  0  0  0
 31 36  2  0  0  0
 32 37  1  0  0  0
 33 38  2  0  0  0
 34 39  2  0  0  0
 36 39  1  0  0  0
 37 40  2  0  0  0
 38 40  1  0  0  0
M  END
>  <CHROM.0>
-42.23764452,171.39651753,114.86648151

>  <CHROM.1>
119.43362326,79.82924108,-89.90169871,-90.96626814,171.84837844,80.53340583
131.13233390,-47.34265390,101.93453463,54.85317036,-106.55571709,22.91831851
-49.70361439,-3.43943680,17.15373525,-0.50168330,-0.78723183,-2.09701643

>  <Name>
64143

>  <PUBCHEM_ATOM_DEF_STEREO_COUNT>
5

>  <PUBCHEM_ATOM_UDEF_STEREO_COUNT>
0

>  <PUBCHEM_BOND_DEF_STEREO_COUNT>
0

>  <PUBCHEM_BOND_UDEF_STEREO_COUNT>
0

>  <PUBCHEM_CACTVS_TAUTO_COUNT>
12

>  <PUBCHEM_COMPONENT_COUNT>
1

>  <PUBCHEM_COMPOUND_CID>
64143

>  <PUBCHEM_CONFORMER_DIVERSEORDER>
1
21
84
153
101
123
82
146
125
17
85
73
20
32
151
113
8
57
53
6
52
117
108
155
94
19
118
148
88
54
130
70
105
150
142
135
56
2
77
61
92
106
139
116
7
51
96
80
93
34
132
115
24
147
122
121
67
36
124
66
145
141
112
44
110
58
104
11
79
149
50
143
60
10
46
100
74
55
129
25
30
131
114
97
47
102
111
140
134
81
16
28
109
144
152
48
86
45
126
39
87
65
29
4
95
156
35
133
27
62
78
49
75
98
99
68
15
63
90
69
107
3
103
64
41
59
76
22
9
136
12
157
33
26
23
119
89
38
71
31
138
154
14
43
127
120
72
128
18
37
42
40
137
83
5
91
13

>  <PUBCHEM_CONFORMER_ID>
0000FA8F00000001

>  <PUBCHEM_CONFORMER_RMSD>
1.4

>  <PUBCHEM_COORDINATE_TYPE>
2
5
10

>  <PUBCHEM_EFFECTIVE_ROTOR_COUNT>
13.6

>  <PUBCHEM_FEATURE_SELFOVERLAP>
66.023

>  <PUBCHEM_HEAVY_ATOM_COUNT>
40

>  <PUBCHEM_ISOTOPIC_ATOM_COUNT>
0

>  <PUBCHEM_MMFF94_ENERGY>
106.283

>  <PUBCHEM_MMFF94_PARTIAL_CHARGES>
42
1 -0.33
12 0.27
15 0.33
18 0.27
19 0.57
2 -0.57
20 0.28
21 0.3
22 0.3
23 0.23
27 0.54
28 0.09
29 0.1
3 -0.68
30 -0.14
31 -0.15
32 -0.15
33 -0.15
34 0.08
35 0.14
36 -0.15
37 -0.15
38 -0.15
39 -0.15
4 -0.57
40 -0.15
5 -0.53
59 0.37
6 -0.81
61 0.4
64 0.37
7 -0.73
74 0.15
75 0.15
76 0.15
8 -0.73
80 0.15
81 0.15
82 0.15
83 0.15
84 0.15
85 0.45

>  <PUBCHEM_PHARMACOPHORE_FEATURES>
13
1 2 acceptor
1 3 acceptor
1 3 donor
1 4 acceptor
1 5 donor
1 6 cation
1 7 donor
1 8 donor
4 22 24 25 26 hydrophobe
6 28 30 31 34 36 39 rings
6 29 32 33 37 38 40 rings
6 6 9 10 11 12 15 rings
6 9 10 13 14 16 17 rings

>  <PUBCHEM_SHAPE_FINGERPRINT>
10032420 55 18130495444200979297
10319688 77 17470141684274524266
10721379 63 18052271596134557976
11421498 54 18270101526886733871
11991303 11 17825385439061262902
13690498 29 17703225234654346413
13911987 19 18189607414530907799
15064981 113 18187641419363593252
15439362 3 18118695322292951744
19319366 153 18342181024936020931
19958102 18 18337956809306142254
20505436 4 17987259766991243505
22393880 68 17989485238265708768
23559900 14 17977103453547379345
340366 18 17766549158792973763
4409770 3 18048885387894744490
504843 32 17969224610910731106
563151 97 18410570691006883420
6058803 2 18127403450458884667
6691757 9 18267867358440949680

>  <PUBCHEM_SHAPE_MULTIPOLES>
788.61
15.86
8.74
2.82
9.48
18.24
1.5
-18.8
9.61
4.55
-3.03
-1.39
0.57
-6.09

>  <PUBCHEM_SHAPE_SELFOVERLAP>
1639.542

>  <PUBCHEM_SHAPE_VOLUME>
450.8

>  <RI>
-6.03122e+08

>  <Rbt.Current_Directory>
/root/miniconda3/envs/rdock/share/rxdock-2013.1.1_148c5bd1-0/data/ligands/prepped_ligands/Nelfinavir

>  <Rbt.Executable>
rbdock/0.1.0

>  <Rbt.Library>
librxdock.so/0.1.0

>  <Rbt.Parameter_File>
/root/miniconda3/envs/rdock/share/rxdock-2013.1.1_148c5bd1-0/data/scripts/dock.prm

>  <Rbt.Receptor>
def.prm

>  <SCORE>
6.09681

>  <SCORE.INTER>
-11.2715

>  <SCORE.INTER.CONST>
1

>  <SCORE.INTER.POLAR>
-0.344712

>  <SCORE.INTER.REPUL>
0.0468475

>  <SCORE.INTER.ROT>
10

>  <SCORE.INTER.VDW>
-25.7338

>  <SCORE.INTER.norm>
-0.281789

>  <SCORE.INTRA>
15.1439

>  <SCORE.INTRA.DIHEDRAL>
12.126

>  <SCORE.INTRA.DIHEDRAL.0>
15.8713

>  <SCORE.INTRA.POLAR>
0

>  <SCORE.INTRA.POLAR.0>
0

>  <SCORE.INTRA.REPUL>
0

>  <SCORE.INTRA.REPUL.0>
0

>  <SCORE.INTRA.VDW>
9.08092

>  <SCORE.INTRA.VDW.0>
-0.89017

>  <SCORE.INTRA.norm>
0.378598

>  <SCORE.RESTR>
0.096135

>  <SCORE.RESTR.CAVITY>
0.096135

>  <SCORE.RESTR.norm>
0.00240338

>  <SCORE.SYSTEM>
2.12829

>  <SCORE.SYSTEM.CONST>
0

>  <SCORE.SYSTEM.DIHEDRAL>
4.60295

>  <SCORE.SYSTEM.VDW>
-0.173186

>  <SCORE.SYSTEM.norm>
0.0532072

>  <SCORE.heavy>
40

>  <SCORE.norm>
0.15242

$$$$
64143
  RxDock  02242112023D
librxdock.so/0.1.0
 44 47  0  0  0  0  0  0  0  0999 V2000
  -49.4227    0.2851   17.8815 S   0  0  0  0  0  0
  -51.2030   -6.9605   17.3970 O   0  0  0  0  0  0
  -48.4922   -2.0956   14.0388 O   0  0  0  0  0  0
  -47.5486   -1.7857   19.0711 O   0  0  0  0  0  0
  -42.8409   -0.1505   20.3955 O   0  0  0  0  0  0
  -50.6330   -4.6387   15.4376 N   0  0  0  0  0  0
  -49.1000   -6.0595   17.8262 N   0  0  0  0  0  0
  -47.2902   -1.9145   16.7706 N   0  0  0  0  0  0
  -53.3771   -4.8572   16.6125 C   0  0  0  0  0  0
  -53.1335   -4.7468   15.0963 C   0  0  0  0  0  0
  -52.2004   -4.2434   17.3914 C   0  0  0  0  0  0
  -51.7409   -5.2854   14.7181 C   0  0  0  0  0  0
  -53.6880   -6.2975   17.0545 C   0  0  0  0  0  0
  -54.2521   -5.4302   14.2926 C   0  0  0  0  0  0
  -50.8071   -4.6584   16.8951 C   0  0  0  0  0  0
  -54.8404   -6.8970   16.2541 C   0  0  0  0  0  0
  -54.5577   -6.8508   14.7573 C   0  0  0  0  0  0
  -50.3787   -3.2846   14.9450 C   0  0  0  0  0  0
  -50.4120   -6.0211   17.3865 C   0  0  0  0  0  0
  -48.9258   -2.8458   15.1757 C   0  0  0  0  0  0
  -48.6995   -1.9995   16.4496 C   0  0  0  0  0  0
  -48.4825   -7.2482   18.3684 C   0  0  0  0  0  0
  -49.3015   -0.5945   16.2907 C   0  0  0  0  0  0
  -47.0023   -6.9667   18.6506 C   0  0  0  0  0  0
  -49.1945   -7.6335   19.6694 C   0  0  0  0  0  0
  -48.6034   -8.3903   17.3529 C   0  0  0  0  0  0
  -46.8327   -1.8136   18.0734 C   0  0  0  0  0  0
  -45.3596   -1.7082   18.2338 C   0  0  0  0  0  0
  -50.6779   -0.6764   18.7167 C   0  0  0  0  0  0
  -44.7963   -0.9589   19.2665 C   0  0  0  0  0  0
  -44.5362   -2.3766   17.3277 C   0  0  0  0  0  0
  -52.0187   -0.3028   18.6248 C   0  0  0  0  0  0
  -50.3163   -1.7995   19.4605 C   0  0  0  0  0  0
  -43.4096   -0.8779   19.3934 C   0  0  0  0  0  0
  -45.6718   -0.2391   20.2428 C   0  0  0  0  0  0
  -43.1494   -2.2955   17.4545 C   0  0  0  0  0  0
  -52.9978   -1.0524   19.2766 C   0  0  0  0  0  0
  -51.2956   -2.5492   20.1123 C   0  0  0  0  0  0
  -42.5861   -1.5461   18.4873 C   0  0  0  0  0  0
  -52.6362   -2.1756   20.0204 C   0  0  0  0  0  0
  -48.5084   -5.2463   17.6858 H   0  0  0  0  0  0
  -48.4358   -2.7110   13.2880 H   0  0  0  0  0  0
  -46.6197   -1.9560   16.0080 H   0  0  0  0  0  0
  -41.8848   -0.0781   20.2325 H   0  0  0  0  0  0
  1 23  1  0  0  0
  1 29  1  0  0  0
  2 19  2  0  0  0
  3 20  1  0  0  0
  3 42  1  0  0  0
  4 27  2  0  0  0
  5 34  1  0  0  0
  5 44  1  0  0  0
  6 12  1  0  0  0
  6 15  1  0  0  0
  6 18  1  0  0  0
  7 19  1  0  0  0
  7 22  1  0  0  0
  7 41  1  0  0  0
  8 21  1  0  0  0
  8 27  1  0  0  0
  8 43  1  0  0  0
  9 10  1  0  0  0
  9 11  1  0  0  0
  9 13  1  0  0  0
 10 12  1  0  0  0
 10 14  1  0  0  0
 11 15  1  0  0  0
 13 16  1  0  0  0
 14 17  1  0  0  0
 15 19  1  0  0  0
 16 17  1  0  0  0
 18 20  1  0  0  0
 20 21  1  0  0  0
 21 23  1  0  0  0
 22 24  1  0  0  0
 22 25  1  0  0  0
 22 26  1  0  0  0
 27 28  1  0  0  0
 28 30  2  0  0  0
 28 31  1  0  0  0
 29 32  2  0  0  0
 29 33  1  0  0  0
 30 34  1  0  0  0
 30 35  1  0  0  0
 31 36  2  0  0  0
 32 37  1  0  0  0
 33 38  2  0  0  0
 34 39  2  0  0  0
 36 39  1  0  0  0
 37 40  2  0  0  0
 38 40  1  0  0  0
M  END
>  <CHROM.0>
-140.01164692,-61.88315129,60.46490600

>  <CHROM.1>
-68.12991813,-92.58147302,-68.12056034,-169.90029920,-153.84927094,175.60716946
-148.44393676,-85.30300390,141.40483219,-72.52400504,-70.50529516,-32.15061903
-49.30394696,-3.36798457,17.51154172,0.54645514,-0.20794443,0.16789893

>  <Name>
64143

>  <PUBCHEM_ATOM_DEF_STEREO_COUNT>
5

>  <PUBCHEM_ATOM_UDEF_STEREO_COUNT>
0

>  <PUBCHEM_BOND_DEF_STEREO_COUNT>
0

>  <PUBCHEM_BOND_UDEF_STEREO_COUNT>
0

>  <PUBCHEM_CACTVS_TAUTO_COUNT>
12

>  <PUBCHEM_COMPONENT_COUNT>
1

>  <PUBCHEM_COMPOUND_CID>
64143

>  <PUBCHEM_CONFORMER_DIVERSEORDER>
1
21
84
153
101
123
82
146
125
17
85
73
20
32
151
113
8
57
53
6
52
117
108
155
94
19
118
148
88
54
130
70
105
150
142
135
56
2
77
61
92
106
139
116
7
51
96
80
93
34
132
115
24
147
122
121
67
36
124
66
145
141
112
44
110
58
104
11
79
149
50
143
60
10
46
100
74
55
129
25
30
131
114
97
47
102
111
140
134
81
16
28
109
144
152
48
86
45
126
39
87
65
29
4
95
156
35
133
27
62
78
49
75
98
99
68
15
63
90
69
107
3
103
64
41
59
76
22
9
136
12
157
33
26
23
119
89
38
71
31
138
154
14
43
127
120
72
128
18
37
42
40
137
83
5
91
13

>  <PUBCHEM_CONFORMER_ID>
0000FA8F00000001

>  <PUBCHEM_CONFORMER_RMSD>
1.4

>  <PUBCHEM_COORDINATE_TYPE>
2
5
10

>  <PUBCHEM_EFFECTIVE_ROTOR_COUNT>
13.6

>  <PUBCHEM_FEATURE_SELFOVERLAP>
66.023

>  <PUBCHEM_HEAVY_ATOM_COUNT>
40

>  <PUBCHEM_ISOTOPIC_ATOM_COUNT>
0

>  <PUBCHEM_MMFF94_ENERGY>
106.283

>  <PUBCHEM_MMFF94_PARTIAL_CHARGES>
42
1 -0.33
12 0.27
15 0.33
18 0.27
19 0.57
2 -0.57
20 0.28
21 0.3
22 0.3
23 0.23
27 0.54
28 0.09
29 0.1
3 -0.68
30 -0.14
31 -0.15
32 -0.15
33 -0.15
34 0.08
35 0.14
36 -0.15
37 -0.15
38 -0.15
39 -0.15
4 -0.57
40 -0.15
5 -0.53
59 0.37
6 -0.81
61 0.4
64 0.37
7 -0.73
74 0.15
75 0.15
76 0.15
8 -0.73
80 0.15
81 0.15
82 0.15
83 0.15
84 0.15
85 0.45

>  <PUBCHEM_PHARMACOPHORE_FEATURES>
13
1 2 acceptor
1 3 acceptor
1 3 donor
1 4 acceptor
1 5 donor
1 6 cation
1 7 donor
1 8 donor
4 22 24 25 26 hydrophobe
6 28 30 31 34 36 39 rings
6 29 32 33 37 38 40 rings
6 6 9 10 11 12 15 rings
6 9 10 13 14 16 17 rings

>  <PUBCHEM_SHAPE_FINGERPRINT>
10032420 55 18130495444200979297
10319688 77 17470141684274524266
10721379 63 18052271596134557976
11421498 54 18270101526886733871
11991303 11 17825385439061262902
13690498 29 17703225234654346413
13911987 19 18189607414530907799
15064981 113 18187641419363593252
15439362 3 18118695322292951744
19319366 153 18342181024936020931
19958102 18 18337956809306142254
20505436 4 17987259766991243505
22393880 68 17989485238265708768
23559900 14 17977103453547379345
340366 18 17766549158792973763
4409770 3 18048885387894744490
504843 32 17969224610910731106
563151 97 18410570691006883420
6058803 2 18127403450458884667
6691757 9 18267867358440949680

>  <PUBCHEM_SHAPE_MULTIPOLES>
788.61
15.86
8.74
2.82
9.48
18.24
1.5
-18.8
9.61
4.55
-3.03
-1.39
0.57
-6.09

>  <PUBCHEM_SHAPE_SELFOVERLAP>
1639.542

>  <PUBCHEM_SHAPE_VOLUME>
450.8

>  <RI>
-6.03122e+08

>  <Rbt.Current_Directory>
/root/miniconda3/envs/rdock/share/rxdock-2013.1.1_148c5bd1-0/data/ligands/prepped_ligands/Nelfinavir

>  <Rbt.Executable>
rbdock/0.1.0

>  <Rbt.Library>
librxdock.so/0.1.0

>  <Rbt.Parameter_File>
/root/miniconda3/envs/rdock/share/rxdock-2013.1.1_148c5bd1-0/data/scripts/dock.prm

>  <Rbt.Receptor>
def.prm

>  <SCORE>
-7.97091

>  <SCORE.INTER>
-9.3009

>  <SCORE.INTER.CONST>
1

>  <SCORE.INTER.POLAR>
-0.0179636

>  <SCORE.INTER.REPUL>
0

>  <SCORE.INTER.ROT>
10

>  <SCORE.INTER.VDW>
-24.6398

>  <SCORE.INTER.norm>
-0.232522

>  <SCORE.INTRA>
0.590599

>  <SCORE.INTRA.DIHEDRAL>
0.653185

>  <SCORE.INTRA.DIHEDRAL.0>
15.8713

>  <SCORE.INTRA.POLAR>
0

>  <SCORE.INTRA.POLAR.0>
0

>  <SCORE.INTRA.REPUL>
0

>  <SCORE.INTRA.REPUL.0>
0

>  <SCORE.INTRA.VDW>
0.264006

>  <SCORE.INTRA.VDW.0>
-0.89017

>  <SCORE.INTRA.norm>
0.014765

>  <SCORE.RESTR>
0.00325179

>  <SCORE.RESTR.CAVITY>
0.00325179

>  <SCORE.RESTR.norm>
8.12947e-05

>  <SCORE.SYSTEM>
0.736135

>  <SCORE.SYSTEM.CONST>
0

>  <SCORE.SYSTEM.DIHEDRAL>
2.70453

>  <SCORE.SYSTEM.POLAR>
-0.00217329

>  <SCORE.SYSTEM.VDW>
-0.608739

>  <SCORE.SYSTEM.norm>
0.0184034

>  <SCORE.heavy>
40

>  <SCORE.norm>
-0.199273

$$$$
64143
  RxDock  02242112033D
librxdock.so/0.1.0
 44 47  0  0  0  0  0  0  0  0999 V2000
  -49.3293    0.0912   16.1898 S   0  0  0  0  0  0
  -52.7041   -6.2780   18.4440 O   0  0  0  0  0  0
  -51.4826   -2.4385   18.4222 O   0  0  0  0  0  0
  -47.9840   -2.7843   16.7232 O   0  0  0  0  0  0
  -43.1112   -2.2690   15.0935 O   0  0  0  0  0  0
  -50.4992   -4.9041   18.9031 N   0  0  0  0  0  0
  -52.5477   -6.0601   16.1317 N   0  0  0  0  0  0
  -47.9728   -1.2658   18.4753 N   0  0  0  0  0  0
  -49.1539   -7.3169   17.7511 C   0  0  0  0  0  0
  -48.8743   -6.8181   19.1807 C   0  0  0  0  0  0
  -49.6573   -6.1614   16.8682 C   0  0  0  0  0  0
  -50.0784   -6.0376   19.7406 C   0  0  0  0  0  0
  -50.0984   -8.5310   17.7264 C   0  0  0  0  0  0
  -48.4532   -7.9693   20.1089 C   0  0  0  0  0  0
  -50.7445   -5.2835   17.5063 C   0  0  0  0  0  0
  -49.5954   -9.6555   18.6267 C   0  0  0  0  0  0
  -49.3922   -9.1706   20.0571 C   0  0  0  0  0  0
  -49.5684   -3.7793   18.9989 C   0  0  0  0  0  0
  -52.1025   -5.9200   17.4349 C   0  0  0  0  0  0
  -50.0692   -2.5444   18.2366 C   0  0  0  0  0  0
  -49.4081   -1.2116   18.6575 C   0  0  0  0  0  0
  -53.8153   -6.6642   15.7900 C   0  0  0  0  0  0
  -50.0060   -0.0305   17.8768 C   0  0  0  0  0  0
  -54.9541   -5.7450   16.2461 C   0  0  0  0  0  0
  -53.8834   -6.8605   14.2719 C   0  0  0  0  0  0
  -53.9366   -8.0204   16.4945 C   0  0  0  0  0  0
  -47.3789   -2.0598   17.5091 C   0  0  0  0  0  0
  -45.8944   -2.0244   17.4678 C   0  0  0  0  0  0
  -50.0422   -1.3584   15.4229 C   0  0  0  0  0  0
  -45.2006   -2.1680   16.2663 C   0  0  0  0  0  0
  -45.1937   -1.8431   18.6603 C   0  0  0  0  0  0
  -51.3287   -1.7700   15.7709 C   0  0  0  0  0  0
  -49.3116   -2.0777   14.4772 C   0  0  0  0  0  0
  -43.8064   -2.1302   16.2572 C   0  0  0  0  0  0
  -45.9438   -2.3625   14.9828 C   0  0  0  0  0  0
  -43.7993   -1.8054   18.6511 C   0  0  0  0  0  0
  -51.8847   -2.9009   15.1730 C   0  0  0  0  0  0
  -49.8678   -3.2086   13.8793 C   0  0  0  0  0  0
  -43.1056   -1.9491   17.4496 C   0  0  0  0  0  0
  -51.1541   -3.6203   14.2272 C   0  0  0  0  0  0
  -52.0080   -5.6449   15.3784 H   0  0  0  0  0  0
  -51.8927   -3.1979   17.9742 H   0  0  0  0  0  0
  -47.3904   -0.6782   19.0655 H   0  0  0  0  0  0
  -42.1835   -2.4757   15.3001 H   0  0  0  0  0  0
  1 23  1  0  0  0
  1 29  1  0  0  0
  2 19  2  0  0  0
  3 20  1  0  0  0
  3 42  1  0  0  0
  4 27  2  0  0  0
  5 34  1  0  0  0
  5 44  1  0  0  0
  6 12  1  0  0  0
  6 15  1  0  0  0
  6 18  1  0  0  0
  7 19  1  0  0  0
  7 22  1  0  0  0
  7 41  1  0  0  0
  8 21  1  0  0  0
  8 27  1  0  0  0
  8 43  1  0  0  0
  9 10  1  0  0  0
  9 11  1  0  0  0
  9 13  1  0  0  0
 10 12  1  0  0  0
 10 14  1  0  0  0
 11 15  1  0  0  0
 13 16  1  0  0  0
 14 17  1  0  0  0
 15 19  1  0  0  0
 16 17  1  0  0  0
 18 20  1  0  0  0
 20 21  1  0  0  0
 21 23  1  0  0  0
 22 24  1  0  0  0
 22 25  1  0  0  0
 22 26  1  0  0  0
 27 28  1  0  0  0
 28 30  2  0  0  0
 28 31  1  0  0  0
 29 32  2  0  0  0
 29 33  1  0  0  0
 30 34  1  0  0  0
 30 35  1  0  0  0
 31 36  2  0  0  0
 32 37  1  0  0  0
 33 38  2  0  0  0
 34 39  2  0  0  0
 36 39  1  0  0  0
 37 40  2  0  0  0
 38 40  1  0  0  0
M  END
>  <CHROM.0>
-145.81802274,67.60358295,-158.71692716

>  <CHROM.1>
69.13088656,35.58562254,-66.76233417,-163.67935924,-174.45987148,69.03270000
28.76256020,-13.64877616,38.82835474,-179.47466651,44.89256767,33.76553780
-49.37774217,-4.02610817,17.12991753,0.65062390,-0.28175302,-0.42247712

>  <Name>
64143

>  <PUBCHEM_ATOM_DEF_STEREO_COUNT>
5

>  <PUBCHEM_ATOM_UDEF_STEREO_COUNT>
0

>  <PUBCHEM_BOND_DEF_STEREO_COUNT>
0

>  <PUBCHEM_BOND_UDEF_STEREO_COUNT>
0

>  <PUBCHEM_CACTVS_TAUTO_COUNT>
12

>  <PUBCHEM_COMPONENT_COUNT>
1

>  <PUBCHEM_COMPOUND_CID>
64143

>  <PUBCHEM_CONFORMER_DIVERSEORDER>
1
21
84
153
101
123
82
146
125
17
85
73
20
32
151
113
8
57
53
6
52
117
108
155
94
19
118
148
88
54
130
70
105
150
142
135
56
2
77
61
92
106
139
116
7
51
96
80
93
34
132
115
24
147
122
121
67
36
124
66
145
141
112
44
110
58
104
11
79
149
50
143
60
10
46
100
74
55
129
25
30
131
114
97
47
102
111
140
134
81
16
28
109
144
152
48
86
45
126
39
87
65
29
4
95
156
35
133
27
62
78
49
75
98
99
68
15
63
90
69
107
3
103
64
41
59
76
22
9
136
12
157
33
26
23
119
89
38
71
31
138
154
14
43
127
120
72
128
18
37
42
40
137
83
5
91
13

>  <PUBCHEM_CONFORMER_ID>
0000FA8F00000001

>  <PUBCHEM_CONFORMER_RMSD>
1.4

>  <PUBCHEM_COORDINATE_TYPE>
2
5
10

>  <PUBCHEM_EFFECTIVE_ROTOR_COUNT>
13.6

>  <PUBCHEM_FEATURE_SELFOVERLAP>
66.023

>  <PUBCHEM_HEAVY_ATOM_COUNT>
40

>  <PUBCHEM_ISOTOPIC_ATOM_COUNT>
0

>  <PUBCHEM_MMFF94_ENERGY>
106.283

>  <PUBCHEM_MMFF94_PARTIAL_CHARGES>
42
1 -0.33
12 0.27
15 0.33
18 0.27
19 0.57
2 -0.57
20 0.28
21 0.3
22 0.3
23 0.23
27 0.54
28 0.09
29 0.1
3 -0.68
30 -0.14
31 -0.15
32 -0.15
33 -0.15
34 0.08
35 0.14
36 -0.15
37 -0.15
38 -0.15
39 -0.15
4 -0.57
40 -0.15
5 -0.53
59 0.37
6 -0.81
61 0.4
64 0.37
7 -0.73
74 0.15
75 0.15
76 0.15
8 -0.73
80 0.15
81 0.15
82 0.15
83 0.15
84 0.15
85 0.45

>  <PUBCHEM_PHARMACOPHORE_FEATURES>
13
1 2 acceptor
1 3 acceptor
1 3 donor
1 4 acceptor
1 5 donor
1 6 cation
1 7 donor
1 8 donor
4 22 24 25 26 hydrophobe
6 28 30 31 34 36 39 rings
6 29 32 33 37 38 40 rings
6 6 9 10 11 12 15 rings
6 9 10 13 14 16 17 rings

>  <PUBCHEM_SHAPE_FINGERPRINT>
10032420 55 18130495444200979297
10319688 77 17470141684274524266
10721379 63 18052271596134557976
11421498 54 18270101526886733871
11991303 11 17825385439061262902
13690498 29 17703225234654346413
13911987 19 18189607414530907799
15064981 113 18187641419363593252
15439362 3 18118695322292951744
19319366 153 18342181024936020931
19958102 18 18337956809306142254
20505436 4 17987259766991243505
22393880 68 17989485238265708768
23559900 14 17977103453547379345
340366 18 17766549158792973763
4409770 3 18048885387894744490
504843 32 17969224610910731106
563151 97 18410570691006883420
6058803 2 18127403450458884667
6691757 9 18267867358440949680

>  <PUBCHEM_SHAPE_MULTIPOLES>
788.61
15.86
8.74
2.82
9.48
18.24
1.5
-18.8
9.61
4.55
-3.03
-1.39
0.57
-6.09

>  <PUBCHEM_SHAPE_SELFOVERLAP>
1639.542

>  <PUBCHEM_SHAPE_VOLUME>
450.8

>  <RI>
-6.03122e+08

>  <Rbt.Current_Directory>
/root/miniconda3/envs/rdock/share/rxdock-2013.1.1_148c5bd1-0/data/ligands/prepped_ligands/Nelfinavir

>  <Rbt.Executable>
rbdock/0.1.0

>  <Rbt.Library>
librxdock.so/0.1.0

>  <Rbt.Parameter_File>
/root/miniconda3/envs/rdock/share/rxdock-2013.1.1_148c5bd1-0/data/scripts/dock.prm

>  <Rbt.Receptor>
def.prm

>  <SCORE>
-3.17928

>  <SCORE.INTER>
-3.27742

>  <SCORE.INTER.CONST>
1

>  <SCORE.INTER.POLAR>
0

>  <SCORE.INTER.REPUL>
0.0567318

>  <SCORE.INTER.ROT>
10

>  <SCORE.INTER.VDW>
-18.9611

>  <SCORE.INTER.norm>
-0.0819356

>  <SCORE.INTRA>
-1.01988

>  <SCORE.INTRA.DIHEDRAL>
-3.81068

>  <SCORE.INTRA.DIHEDRAL.0>
15.8713

>  <SCORE.INTRA.POLAR>
0

>  <SCORE.INTRA.POLAR.0>
0

>  <SCORE.INTRA.REPUL>
0

>  <SCORE.INTRA.REPUL.0>
0

>  <SCORE.INTRA.VDW>
0.885464

>  <SCORE.INTRA.VDW.0>
-0.89017

>  <SCORE.INTRA.norm>
-0.0254969

>  <SCORE.RESTR>
0.00776528

>  <SCORE.RESTR.CAVITY>
0.00776528

>  <SCORE.RESTR.norm>
0.000194132

>  <SCORE.SYSTEM>
1.11026

>  <SCORE.SYSTEM.CONST>
0

>  <SCORE.SYSTEM.DIHEDRAL>
3.4515

>  <SCORE.SYSTEM.POLAR>
-0.0181768

>  <SCORE.SYSTEM.VDW>
-0.553689

>  <SCORE.SYSTEM.norm>
0.0277565

>  <SCORE.heavy>
40

>  <SCORE.norm>
-0.0794819

$$$$
64143
  RxDock  02242112033D
librxdock.so/0.1.0
 44 47  0  0  0  0  0  0  0  0999 V2000
  -48.9346    0.4519   21.0993 S   0  0  0  0  0  0
  -52.3599   -6.1783   19.9881 O   0  0  0  0  0  0
  -52.4221    0.6011   18.5086 O   0  0  0  0  0  0
  -48.3013   -2.4046   18.0515 O   0  0  0  0  0  0
  -47.3166    0.3510   12.9850 O   0  0  0  0  0  0
  -51.8034   -3.0616   18.5914 N   0  0  0  0  0  0
  -50.6866   -5.4594   18.5384 N   0  0  0  0  0  0
  -49.2876   -0.3245   17.7762 N   0  0  0  0  0  0
  -52.7348   -4.4585   16.1135 C   0  0  0  0  0  0
  -51.8407   -3.2058   16.0698 C   0  0  0  0  0  0
  -53.5365   -4.5002   17.4264 C   0  0  0  0  0  0
  -51.0042   -3.0768   17.3567 C   0  0  0  0  0  0
  -51.9436   -5.7543   15.8658 C   0  0  0  0  0  0
  -50.9621   -3.1820   14.8081 C   0  0  0  0  0  0
  -52.7214   -4.2026   18.6941 C   0  0  0  0  0  0
  -51.1361   -5.6838   14.5730 C   0  0  0  0  0  0
  -50.1995   -4.4817   14.5701 C   0  0  0  0  0  0
  -52.5042   -1.7901   18.7726 C   0  0  0  0  0  0
  -51.9265   -5.3920   19.1502 C   0  0  0  0  0  0
  -51.6953   -0.5997   18.2382 C   0  0  0  0  0  0
  -50.2723   -0.4669   18.8280 C   0  0  0  0  0  0
  -49.7209   -6.4966   18.8212 C   0  0  0  0  0  0
  -50.1905    0.7155   19.8063 C   0  0  0  0  0  0
  -48.4019   -6.1678   18.1126 C   0  0  0  0  0  0
  -49.4926   -6.5692   20.3347 C   0  0  0  0  0  0
  -50.2563   -7.8399   18.3121 C   0  0  0  0  0  0
  -48.3752   -1.3217   17.4766 C   0  0  0  0  0  0
  -47.4134   -1.0107   16.3880 C   0  0  0  0  0  0
  -47.4250    0.5675   20.1478 C   0  0  0  0  0  0
  -47.8422   -0.4647   15.1783 C   0  0  0  0  0  0
  -46.0591   -1.2744   16.5930 C   0  0  0  0  0  0
  -46.4626   -0.4377   20.2419 C   0  0  0  0  0  0
  -47.2096    1.6632   19.3119 C   0  0  0  0  0  0
  -46.9168   -0.1822   14.1736 C   0  0  0  0  0  0
  -49.2925   -0.1784   14.9498 C   0  0  0  0  0  0
  -45.1336   -0.9920   15.5883 C   0  0  0  0  0  0
  -45.2849   -0.3475   19.5001 C   0  0  0  0  0  0
  -46.0318    1.7533   18.5700 C   0  0  0  0  0  0
  -45.5624   -0.4461   14.3785 C   0  0  0  0  0  0
  -45.0695    0.7482   18.6642 C   0  0  0  0  0  0
  -50.4684   -4.8066   17.7918 H   0  0  0  0  0  0
  -53.2919    0.5173   18.0821 H   0  0  0  0  0  0
  -49.2899    0.5310   17.2275 H   0  0  0  0  0  0
  -46.5360    0.6739   12.5030 H   0  0  0  0  0  0
  1 23  1  0  0  0
  1 29  1  0  0  0
  2 19  2  0  0  0
  3 20  1  0  0  0
  3 42  1  0  0  0
  4 27  2  0  0  0
  5 34  1  0  0  0
  5 44  1  0  0  0
  6 12  1  0  0  0
  6 15  1  0  0  0
  6 18  1  0  0  0
  7 19  1  0  0  0
  7 22  1  0  0  0
  7 41  1  0  0  0
  8 21  1  0  0  0
  8 27  1  0  0  0
  8 43  1  0  0  0
  9 10  1  0  0  0
  9 11  1  0  0  0
  9 13  1  0  0  0
 10 12  1  0  0  0
 10 14  1  0  0  0
 11 15  1  0  0  0
 13 16  1  0  0  0
 14 17  1  0  0  0
 15 19  1  0  0  0
 16 17  1  0  0  0
 18 20  1  0  0  0
 20 21  1  0  0  0
 21 23  1  0  0  0
 22 24  1  0  0  0
 22 25  1  0  0  0
 22 26  1  0  0  0
 27 28  1  0  0  0
 28 30  2  0  0  0
 28 31  1  0  0  0
 29 32  2  0  0  0
 29 33  1  0  0  0
 30 34  1  0  0  0
 30 35  1  0  0  0
 31 36  2  0  0  0
 32 37  1  0  0  0
 33 38  2  0  0  0
 34 39  2  0  0  0
 36 39  1  0  0  0
 37 40  2  0  0  0
 38 40  1  0  0  0
M  END
>  <CHROM.0>
-157.74867506,-178.89421952,-63.78466405

>  <CHROM.1>
69.53599019,-128.63863469,-57.91523828,166.55798609,-34.03775665,-172.73919647
-110.08966432,138.38075816,-177.41696757,-108.81292996,-85.28703476,133.78541305
-49.44196011,-2.23219602,17.66922359,0.32593078,0.84636052,1.11641429

>  <Name>
64143

>  <PUBCHEM_ATOM_DEF_STEREO_COUNT>
5

>  <PUBCHEM_ATOM_UDEF_STEREO_COUNT>
0

>  <PUBCHEM_BOND_DEF_STEREO_COUNT>
0

>  <PUBCHEM_BOND_UDEF_STEREO_COUNT>
0

>  <PUBCHEM_CACTVS_TAUTO_COUNT>
12

>  <PUBCHEM_COMPONENT_COUNT>
1

>  <PUBCHEM_COMPOUND_CID>
64143

>  <PUBCHEM_CONFORMER_DIVERSEORDER>
1
21
84
153
101
123
82
146
125
17
85
73
20
32
151
113
8
57
53
6
52
117
108
155
94
19
118
148
88
54
130
70
105
150
142
135
56
2
77
61
92
106
139
116
7
51
96
80
93
34
132
115
24
147
122
121
67
36
124
66
145
141
112
44
110
58
104
11
79
149
50
143
60
10
46
100
74
55
129
25
30
131
114
97
47
102
111
140
134
81
16
28
109
144
152
48
86
45
126
39
87
65
29
4
95
156
35
133
27
62
78
49
75
98
99
68
15
63
90
69
107
3
103
64
41
59
76
22
9
136
12
157
33
26
23
119
89
38
71
31
138
154
14
43
127
120
72
128
18
37
42
40
137
83
5
91
13

>  <PUBCHEM_CONFORMER_ID>
0000FA8F00000001

>  <PUBCHEM_CONFORMER_RMSD>
1.4

>  <PUBCHEM_COORDINATE_TYPE>
2
5
10

>  <PUBCHEM_EFFECTIVE_ROTOR_COUNT>
13.6

>  <PUBCHEM_FEATURE_SELFOVERLAP>
66.023

>  <PUBCHEM_HEAVY_ATOM_COUNT>
40

>  <PUBCHEM_ISOTOPIC_ATOM_COUNT>
0

>  <PUBCHEM_MMFF94_ENERGY>
106.283

>  <PUBCHEM_MMFF94_PARTIAL_CHARGES>
42
1 -0.33
12 0.27
15 0.33
18 0.27
19 0.57
2 -0.57
20 0.28
21 0.3
22 0.3
23 0.23
27 0.54
28 0.09
29 0.1
3 -0.68
30 -0.14
31 -0.15
32 -0.15
33 -0.15
34 0.08
35 0.14
36 -0.15
37 -0.15
38 -0.15
39 -0.15
4 -0.57
40 -0.15
5 -0.53
59 0.37
6 -0.81
61 0.4
64 0.37
7 -0.73
74 0.15
75 0.15
76 0.15
8 -0.73
80 0.15
81 0.15
82 0.15
83 0.15
84 0.15
85 0.45

>  <PUBCHEM_PHARMACOPHORE_FEATURES>
13
1 2 acceptor
1 3 acceptor
1 3 donor
1 4 acceptor
1 5 donor
1 6 cation
1 7 donor
1 8 donor
4 22 24 25 26 hydrophobe
6 28 30 31 34 36 39 rings
6 29 32 33 37 38 40 rings
6 6 9 10 11 12 15 rings
6 9 10 13 14 16 17 rings

>  <PUBCHEM_SHAPE_FINGERPRINT>
10032420 55 18130495444200979297
10319688 77 17470141684274524266
10721379 63 18052271596134557976
11421498 54 18270101526886733871
11991303 11 17825385439061262902
13690498 29 17703225234654346413
13911987 19 18189607414530907799
15064981 113 18187641419363593252
15439362 3 18118695322292951744
19319366 153 18342181024936020931
19958102 18 18337956809306142254
20505436 4 17987259766991243505
22393880 68 17989485238265708768
23559900 14 17977103453547379345
340366 18 17766549158792973763
4409770 3 18048885387894744490
504843 32 17969224610910731106
563151 97 18410570691006883420
6058803 2 18127403450458884667
6691757 9 18267867358440949680

>  <PUBCHEM_SHAPE_MULTIPOLES>
788.61
15.86
8.74
2.82
9.48
18.24
1.5
-18.8
9.61
4.55
-3.03
-1.39
0.57
-6.09

>  <PUBCHEM_SHAPE_SELFOVERLAP>
1639.542

>  <PUBCHEM_SHAPE_VOLUME>
450.8

>  <RI>
-6.03122e+08

>  <Rbt.Current_Directory>
/root/miniconda3/envs/rdock/share/rxdock-2013.1.1_148c5bd1-0/data/ligands/prepped_ligands/Nelfinavir

>  <Rbt.Executable>
rbdock/0.1.0

>  <Rbt.Library>
librxdock.so/0.1.0

>  <Rbt.Parameter_File>
/root/miniconda3/envs/rdock/share/rxdock-2013.1.1_148c5bd1-0/data/scripts/dock.prm

>  <Rbt.Receptor>
def.prm

>  <SCORE>
5.77152

>  <SCORE.INTER>
-6.65422

>  <SCORE.INTER.CONST>
1

>  <SCORE.INTER.POLAR>
-0.0609306

>  <SCORE.INTER.REPUL>
0.194183

>  <SCORE.INTER.ROT>
10

>  <SCORE.INTER.VDW>
-22.818

>  <SCORE.INTER.norm>
-0.166355

>  <SCORE.INTRA>
12.5418

>  <SCORE.INTRA.DIHEDRAL>
4.85332

>  <SCORE.INTRA.DIHEDRAL.0>
15.8713

>  <SCORE.INTRA.POLAR>
0

>  <SCORE.INTRA.POLAR.0>
0

>  <SCORE.INTRA.REPUL>
0

>  <SCORE.INTRA.REPUL.0>
0

>  <SCORE.INTRA.VDW>
10.1151

>  <SCORE.INTRA.VDW.0>
-0.89017

>  <SCORE.INTRA.norm>
0.313545

>  <SCORE.RESTR>
0.236654

>  <SCORE.RESTR.CAVITY>
0.236654

>  <SCORE.RESTR.norm>
0.00591635

>  <SCORE.SYSTEM>
-0.352725

>  <SCORE.SYSTEM.CONST>
0

>  <SCORE.SYSTEM.DIHEDRAL>
1.12108

>  <SCORE.SYSTEM.VDW>
-0.913263

>  <SCORE.SYSTEM.norm>
-0.00881812

>  <SCORE.heavy>
40

>  <SCORE.norm>
0.144288

$$$$
