64143
  RxDock  02242109583D
librxdock.so/0.1.0
 44 47  0  0  0  0  0  0  0  0999 V2000
  -53.3194   -4.1493   15.9494 S   0  0  0  0  0  0
  -48.2698   -1.7982   17.1109 O   0  0  0  0  0  0
  -53.3014   -2.9692   20.1202 O   0  0  0  0  0  0
  -50.5102   -5.0174   16.1465 O   0  0  0  0  0  0
  -46.3985   -8.0657   18.1154 O   0  0  0  0  0  0
  -50.1177   -1.4710   18.9686 N   0  0  0  0  0  0
  -49.4502   -0.5923   15.5074 N   0  0  0  0  0  0
  -51.1232   -4.9401   18.3811 N   0  0  0  0  0  0
  -49.1180    1.3502   18.9648 C   0  0  0  0  0  0
  -49.0771    0.4604   20.2207 C   0  0  0  0  0  0
  -50.2204    0.8718   18.0036 C   0  0  0  0  0  0
  -49.0184   -1.0313   19.8412 C   0  0  0  0  0  0
  -47.7459    1.4610   18.2781 C   0  0  0  0  0  0
  -47.9273    0.8605   21.1599 C   0  0  0  0  0  0
  -50.2582   -0.6450   17.7632 C   0  0  0  0  0  0
  -46.6620    1.9122   19.2527 C   0  0  0  0  0  0
  -46.5787    0.9824   20.4572 C   0  0  0  0  0  0
  -51.3825   -1.5791   19.6963 C   0  0  0  0  0  0
  -49.2161   -1.0897   16.7778 C   0  0  0  0  0  0
  -51.9423   -3.0085   19.6789 C   0  0  0  0  0  0
  -51.8832   -3.7103   18.3026 C   0  0  0  0  0  0
  -48.5810   -0.8549   14.3831 C   0  0  0  0  0  0
  -53.2962   -3.9838   17.7635 C   0  0  0  0  0  0
  -48.7199   -2.3238   13.9674 C   0  0  0  0  0  0
  -48.9822    0.0545   13.2169 C   0  0  0  0  0  0
  -47.1298   -0.5706   14.7873 C   0  0  0  0  0  0
  -50.4942   -5.4931   17.2788 C   0  0  0  0  0  0
  -49.7769   -6.7716   17.5189 C   0  0  0  0  0  0
  -54.2424   -5.6678   15.7497 C   0  0  0  0  0  0
  -48.3951   -6.8015   17.7063 C   0  0  0  0  0  0
  -50.5114   -7.9569   17.5554 C   0  0  0  0  0  0
  -53.6090   -6.8976   15.9287 C   0  0  0  0  0  0
  -55.5955   -5.6225   15.4143 C   0  0  0  0  0  0
  -47.7477   -8.0164   17.9305 C   0  0  0  0  0  0
  -47.5995   -5.5352   17.6690 C   0  0  0  0  0  0
  -49.8639   -9.1720   17.7795 C   0  0  0  0  0  0
  -54.3288   -8.0821   15.7726 C   0  0  0  0  0  0
  -56.3153   -6.8072   15.2582 C   0  0  0  0  0  0
  -48.4821   -9.2018   17.9668 C   0  0  0  0  0  0
  -55.6819   -8.0369   15.4372 C   0  0  0  0  0  0
  -50.3145   -0.0915   15.3249 H   0  0  0  0  0  0
  -53.3718   -2.2617   20.7835 H   0  0  0  0  0  0
  -51.0330   -5.3930   19.2865 H   0  0  0  0  0  0
  -46.0937   -7.2094   18.4613 H   0  0  0  0  0  0
  1 23  1  0  0  0
  1 29  1  0  0  0
  2 19  2  0  0  0
  3 20  1  0  0  0
  3 42  1  0  0  0
  4 27  2  0  0  0
  5 34  1  0  0  0
  5 44  1  0  0  0
  6 12  1  0  0  0
  6 15  1  0  0  0
  6 18  1  0  0  0
  7 19  1  0  0  0
  7 22  1  0  0  0
  7 41  1  0  0  0
  8 21  1  0  0  0
  8 27  1  0  0  0
  8 43  1  0  0  0
  9 10  1  0  0  0
  9 11  1  0  0  0
  9 13  1  0  0  0
 10 12  1  0  0  0
 10 14  1  0  0  0
 11 15  1  0  0  0
 13 16  1  0  0  0
 14 17  1  0  0  0
 15 19  1  0  0  0
 16 17  1  0  0  0
 18 20  1  0  0  0
 20 21  1  0  0  0
 21 23  1  0  0  0
 22 24  1  0  0  0
 22 25  1  0  0  0
 22 26  1  0  0  0
 27 28  1  0  0  0
 28 30  2  0  0  0
 28 31  1  0  0  0
 29 32  2  0  0  0
 29 33  1  0  0  0
 30 34  1  0  0  0
 30 35  1  0  0  0
 31 36  2  0  0  0
 32 37  1  0  0  0
 33 38  2  0  0  0
 34 39  2  0  0  0
 36 39  1  0  0  0
 37 40  2  0  0  0
 38 40  1  0  0  0
M  END
>  <CHROM.0>
68.02439819,-63.64676196,-65.79976247

>  <CHROM.1>
130.61368767,-79.76252235,-33.56252418,25.57467202,-119.00570409,70.70750991
-155.19610590,-14.69730635,-166.41634747,-116.19269975,-80.13004976,81.65320266
-50.36430338,-3.44866237,17.41043752,2.11704249,0.29473598,-3.07972550

>  <Name>
64143

>  <PUBCHEM_ATOM_DEF_STEREO_COUNT>
5

>  <PUBCHEM_ATOM_UDEF_STEREO_COUNT>
0

>  <PUBCHEM_BOND_DEF_STEREO_COUNT>
0

>  <PUBCHEM_BOND_UDEF_STEREO_COUNT>
0

>  <PUBCHEM_CACTVS_TAUTO_COUNT>
12

>  <PUBCHEM_COMPONENT_COUNT>
1

>  <PUBCHEM_COMPOUND_CID>
64143

>  <PUBCHEM_CONFORMER_DIVERSEORDER>
1
21
84
153
101
123
82
146
125
17
85
73
20
32
151
113
8
57
53
6
52
117
108
155
94
19
118
148
88
54
130
70
105
150
142
135
56
2
77
61
92
106
139
116
7
51
96
80
93
34
132
115
24
147
122
121
67
36
124
66
145
141
112
44
110
58
104
11
79
149
50
143
60
10
46
100
74
55
129
25
30
131
114
97
47
102
111
140
134
81
16
28
109
144
152
48
86
45
126
39
87
65
29
4
95
156
35
133
27
62
78
49
75
98
99
68
15
63
90
69
107
3
103
64
41
59
76
22
9
136
12
157
33
26
23
119
89
38
71
31
138
154
14
43
127
120
72
128
18
37
42
40
137
83
5
91
13

>  <PUBCHEM_CONFORMER_ID>
0000FA8F00000001

>  <PUBCHEM_CONFORMER_RMSD>
1.4

>  <PUBCHEM_COORDINATE_TYPE>
2
5
10

>  <PUBCHEM_EFFECTIVE_ROTOR_COUNT>
13.6

>  <PUBCHEM_FEATURE_SELFOVERLAP>
66.023

>  <PUBCHEM_HEAVY_ATOM_COUNT>
40

>  <PUBCHEM_ISOTOPIC_ATOM_COUNT>
0

>  <PUBCHEM_MMFF94_ENERGY>
106.283

>  <PUBCHEM_MMFF94_PARTIAL_CHARGES>
42
1 -0.33
12 0.27
15 0.33
18 0.27
19 0.57
2 -0.57
20 0.28
21 0.3
22 0.3
23 0.23
27 0.54
28 0.09
29 0.1
3 -0.68
30 -0.14
31 -0.15
32 -0.15
33 -0.15
34 0.08
35 0.14
36 -0.15
37 -0.15
38 -0.15
39 -0.15
4 -0.57
40 -0.15
5 -0.53
59 0.37
6 -0.81
61 0.4
64 0.37
7 -0.73
74 0.15
75 0.15
76 0.15
8 -0.73
80 0.15
81 0.15
82 0.15
83 0.15
84 0.15
85 0.45

>  <PUBCHEM_PHARMACOPHORE_FEATURES>
13
1 2 acceptor
1 3 acceptor
1 3 donor
1 4 acceptor
1 5 donor
1 6 cation
1 7 donor
1 8 donor
4 22 24 25 26 hydrophobe
6 28 30 31 34 36 39 rings
6 29 32 33 37 38 40 rings
6 6 9 10 11 12 15 rings
6 9 10 13 14 16 17 rings

>  <PUBCHEM_SHAPE_FINGERPRINT>
10032420 55 18130495444200979297
10319688 77 17470141684274524266
10721379 63 18052271596134557976
11421498 54 18270101526886733871
11991303 11 17825385439061262902
13690498 29 17703225234654346413
13911987 19 18189607414530907799
15064981 113 18187641419363593252
15439362 3 18118695322292951744
19319366 153 18342181024936020931
19958102 18 18337956809306142254
20505436 4 17987259766991243505
22393880 68 17989485238265708768
23559900 14 17977103453547379345
340366 18 17766549158792973763
4409770 3 18048885387894744490
504843 32 17969224610910731106
563151 97 18410570691006883420
6058803 2 18127403450458884667
6691757 9 18267867358440949680

>  <PUBCHEM_SHAPE_MULTIPOLES>
788.61
15.86
8.74
2.82
9.48
18.24
1.5
-18.8
9.61
4.55
-3.03
-1.39
0.57
-6.09

>  <PUBCHEM_SHAPE_SELFOVERLAP>
1639.542

>  <PUBCHEM_SHAPE_VOLUME>
450.8

>  <RI>
-2.95603e+08

>  <Rbt.Current_Directory>
/root/miniconda3/envs/rdock/share/rxdock-2013.1.1_148c5bd1-0/data/ligands/prepped_ligands/Nelfinavir

>  <Rbt.Executable>
rbdock/0.1.0

>  <Rbt.Library>
librxdock.so/0.1.0

>  <Rbt.Parameter_File>
/root/miniconda3/envs/rdock/share/rxdock-2013.1.1_148c5bd1-0/data/scripts/dock.prm

>  <Rbt.Receptor>
def.prm

>  <SCORE>
-4.42156

>  <SCORE.INTER>
-12.7779

>  <SCORE.INTER.CONST>
1

>  <SCORE.INTER.POLAR>
0

>  <SCORE.INTER.REPUL>
0.00612829

>  <SCORE.INTER.ROT>
10

>  <SCORE.INTER.VDW>
-28.2085

>  <SCORE.INTER.norm>
-0.319447

>  <SCORE.INTRA>
9.2807

>  <SCORE.INTRA.DIHEDRAL>
17.4891

>  <SCORE.INTRA.DIHEDRAL.0>
15.8713

>  <SCORE.INTRA.POLAR>
0

>  <SCORE.INTRA.POLAR.0>
0

>  <SCORE.INTRA.REPUL>
0

>  <SCORE.INTRA.REPUL.0>
0

>  <SCORE.INTRA.VDW>
0.536155

>  <SCORE.INTRA.VDW.0>
-0.89017

>  <SCORE.INTRA.norm>
0.232017

>  <SCORE.RESTR>
0.00146712

>  <SCORE.RESTR.CAVITY>
0.00146712

>  <SCORE.RESTR.norm>
3.6678e-05

>  <SCORE.SYSTEM>
-0.925841

>  <SCORE.SYSTEM.CONST>
0

>  <SCORE.SYSTEM.DIHEDRAL>
0.303431

>  <SCORE.SYSTEM.VDW>
-1.07756

>  <SCORE.SYSTEM.norm>
-0.023146

>  <SCORE.heavy>
40

>  <SCORE.norm>
-0.110539

$$$$
64143
  RxDock  02242109583D
librxdock.so/0.1.0
 44 47  0  0  0  0  0  0  0  0999 V2000
  -52.6339   -3.9983   14.9612 S   0  0  0  0  0  0
  -48.2889    1.6172   18.2860 O   0  0  0  0  0  0
  -52.1172   -2.7968   19.4882 O   0  0  0  0  0  0
  -48.7572   -4.7105   17.3735 O   0  0  0  0  0  0
  -50.9182   -8.9520   20.7252 O   0  0  0  0  0  0
  -50.1729   -0.1653   17.8972 N   0  0  0  0  0  0
  -46.9771    0.2225   19.6099 N   0  0  0  0  0  0
  -51.0576   -4.6760   17.6607 N   0  0  0  0  0  0
  -48.0952   -2.0435   16.8416 C   0  0  0  0  0  0
  -49.3261   -1.6243   16.0170 C   0  0  0  0  0  0
  -48.3855   -1.9070   18.3467 C   0  0  0  0  0  0
  -49.8499   -0.2467   16.4646 C   0  0  0  0  0  0
  -46.8207   -1.2935   16.4177 C   0  0  0  0  0  0
  -49.0366   -1.6669   14.5075 C   0  0  0  0  0  0
  -49.0645   -0.5925   18.7598 C   0  0  0  0  0  0
  -46.5639   -1.4198   14.9190 C   0  0  0  0  0  0
  -47.7597   -0.9330   14.1095 C   0  0  0  0  0  0
  -51.4098   -0.8775   18.2193 C   0  0  0  0  0  0
  -48.0895    0.5457   18.8521 C   0  0  0  0  0  0
  -51.1642   -2.3639   18.5147 C   0  0  0  0  0  0
  -51.2517   -3.2922   17.2815 C   0  0  0  0  0  0
  -45.8803    1.1365   19.8337 C   0  0  0  0  0  0
  -52.5943   -3.1161   16.5546 C   0  0  0  0  0  0
  -45.2221    1.4766   18.4917 C   0  0  0  0  0  0
  -46.4185    2.4143   20.4862 C   0  0  0  0  0  0
  -44.8508    0.4761   20.7578 C   0  0  0  0  0  0
  -49.8079   -5.2716   17.6733 C   0  0  0  0  0  0
  -49.7802   -6.7055   18.0603 C   0  0  0  0  0  0
  -53.6936   -5.3836   15.3559 C   0  0  0  0  0  0
  -50.3796   -7.1482   19.2393 C   0  0  0  0  0  0
  -49.1396   -7.6156   17.2193 C   0  0  0  0  0  0
  -53.1691   -6.4988   16.0093 C   0  0  0  0  0  0
  -55.0443   -5.3492   15.0099 C   0  0  0  0  0  0
  -50.3387   -8.5008   19.5774 C   0  0  0  0  0  0
  -51.0689   -6.1793   20.1470 C   0  0  0  0  0  0
  -49.0987   -8.9683   17.5575 C   0  0  0  0  0  0
  -53.9955   -7.5795   16.3169 C   0  0  0  0  0  0
  -55.8707   -6.4300   15.3176 C   0  0  0  0  0  0
  -49.6980   -9.4109   18.7366 C   0  0  0  0  0  0
  -55.3463   -7.5451   15.9708 C   0  0  0  0  0  0
  -46.9593   -0.6621   20.1082 H   0  0  0  0  0  0
  -51.9290   -3.7304   19.6847 H   0  0  0  0  0  0
  -51.8698   -5.2140   17.9502 H   0  0  0  0  0  0
  -51.0924   -9.9051   20.6399 H   0  0  0  0  0  0
  1 23  1  0  0  0
  1 29  1  0  0  0
  2 19  2  0  0  0
  3 20  1  0  0  0
  3 42  1  0  0  0
  4 27  2  0  0  0
  5 34  1  0  0  0
  5 44  1  0  0  0
  6 12  1  0  0  0
  6 15  1  0  0  0
  6 18  1  0  0  0
  7 19  1  0  0  0
  7 22  1  0  0  0
  7 41  1  0  0  0
  8 21  1  0  0  0
  8 27  1  0  0  0
  8 43  1  0  0  0
  9 10  1  0  0  0
  9 11  1  0  0  0
  9 13  1  0  0  0
 10 12  1  0  0  0
 10 14  1  0  0  0
 11 15  1  0  0  0
 13 16  1  0  0  0
 14 17  1  0  0  0
 15 19  1  0  0  0
 16 17  1  0  0  0
 18 20  1  0  0  0
 20 21  1  0  0  0
 21 23  1  0  0  0
 22 24  1  0  0  0
 22 25  1  0  0  0
 22 26  1  0  0  0
 27 28  1  0  0  0
 28 30  2  0  0  0
 28 31  1  0  0  0
 29 32  2  0  0  0
 29 33  1  0  0  0
 30 34  1  0  0  0
 30 35  1  0  0  0
 31 36  2  0  0  0
 32 37  1  0  0  0
 33 38  2  0  0  0
 34 39  2  0  0  0
 36 39  1  0  0  0
 37 40  2  0  0  0
 38 40  1  0  0  0
M  END
>  <CHROM.0>
-58.29605103,-65.13242644,-64.53217569

>  <CHROM.1>
106.04060687,-81.32049405,-178.18006579,158.74284976,87.16460743,-62.33411742
-90.65051725,1.19268189,147.55989439,-56.00592065,-65.25975147,128.61393902
-50.01511870,-3.37570449,17.55272966,2.39384263,0.65050515,2.74123047

>  <Name>
64143

>  <PUBCHEM_ATOM_DEF_STEREO_COUNT>
5

>  <PUBCHEM_ATOM_UDEF_STEREO_COUNT>
0

>  <PUBCHEM_BOND_DEF_STEREO_COUNT>
0

>  <PUBCHEM_BOND_UDEF_STEREO_COUNT>
0

>  <PUBCHEM_CACTVS_TAUTO_COUNT>
12

>  <PUBCHEM_COMPONENT_COUNT>
1

>  <PUBCHEM_COMPOUND_CID>
64143

>  <PUBCHEM_CONFORMER_DIVERSEORDER>
1
21
84
153
101
123
82
146
125
17
85
73
20
32
151
113
8
57
53
6
52
117
108
155
94
19
118
148
88
54
130
70
105
150
142
135
56
2
77
61
92
106
139
116
7
51
96
80
93
34
132
115
24
147
122
121
67
36
124
66
145
141
112
44
110
58
104
11
79
149
50
143
60
10
46
100
74
55
129
25
30
131
114
97
47
102
111
140
134
81
16
28
109
144
152
48
86
45
126
39
87
65
29
4
95
156
35
133
27
62
78
49
75
98
99
68
15
63
90
69
107
3
103
64
41
59
76
22
9
136
12
157
33
26
23
119
89
38
71
31
138
154
14
43
127
120
72
128
18
37
42
40
137
83
5
91
13

>  <PUBCHEM_CONFORMER_ID>
0000FA8F00000001

>  <PUBCHEM_CONFORMER_RMSD>
1.4

>  <PUBCHEM_COORDINATE_TYPE>
2
5
10

>  <PUBCHEM_EFFECTIVE_ROTOR_COUNT>
13.6

>  <PUBCHEM_FEATURE_SELFOVERLAP>
66.023

>  <PUBCHEM_HEAVY_ATOM_COUNT>
40

>  <PUBCHEM_ISOTOPIC_ATOM_COUNT>
0

>  <PUBCHEM_MMFF94_ENERGY>
106.283

>  <PUBCHEM_MMFF94_PARTIAL_CHARGES>
42
1 -0.33
12 0.27
15 0.33
18 0.27
19 0.57
2 -0.57
20 0.28
21 0.3
22 0.3
23 0.23
27 0.54
28 0.09
29 0.1
3 -0.68
30 -0.14
31 -0.15
32 -0.15
33 -0.15
34 0.08
35 0.14
36 -0.15
37 -0.15
38 -0.15
39 -0.15
4 -0.57
40 -0.15
5 -0.53
59 0.37
6 -0.81
61 0.4
64 0.37
7 -0.73
74 0.15
75 0.15
76 0.15
8 -0.73
80 0.15
81 0.15
82 0.15
83 0.15
84 0.15
85 0.45

>  <PUBCHEM_PHARMACOPHORE_FEATURES>
13
1 2 acceptor
1 3 acceptor
1 3 donor
1 4 acceptor
1 5 donor
1 6 cation
1 7 donor
1 8 donor
4 22 24 25 26 hydrophobe
6 28 30 31 34 36 39 rings
6 29 32 33 37 38 40 rings
6 6 9 10 11 12 15 rings
6 9 10 13 14 16 17 rings

>  <PUBCHEM_SHAPE_FINGERPRINT>
10032420 55 18130495444200979297
10319688 77 17470141684274524266
10721379 63 18052271596134557976
11421498 54 18270101526886733871
11991303 11 17825385439061262902
13690498 29 17703225234654346413
13911987 19 18189607414530907799
15064981 113 18187641419363593252
15439362 3 18118695322292951744
19319366 153 18342181024936020931
19958102 18 18337956809306142254
20505436 4 17987259766991243505
22393880 68 17989485238265708768
23559900 14 17977103453547379345
340366 18 17766549158792973763
4409770 3 18048885387894744490
504843 32 17969224610910731106
563151 97 18410570691006883420
6058803 2 18127403450458884667
6691757 9 18267867358440949680

>  <PUBCHEM_SHAPE_MULTIPOLES>
788.61
15.86
8.74
2.82
9.48
18.24
1.5
-18.8
9.61
4.55
-3.03
-1.39
0.57
-6.09

>  <PUBCHEM_SHAPE_SELFOVERLAP>
1639.542

>  <PUBCHEM_SHAPE_VOLUME>
450.8

>  <RI>
-2.95603e+08

>  <Rbt.Current_Directory>
/root/miniconda3/envs/rdock/share/rxdock-2013.1.1_148c5bd1-0/data/ligands/prepped_ligands/Nelfinavir

>  <Rbt.Executable>
rbdock/0.1.0

>  <Rbt.Library>
librxdock.so/0.1.0

>  <Rbt.Parameter_File>
/root/miniconda3/envs/rdock/share/rxdock-2013.1.1_148c5bd1-0/data/scripts/dock.prm

>  <Rbt.Receptor>
def.prm

>  <SCORE>
-9.54588

>  <SCORE.INTER>
-11.9531

>  <SCORE.INTER.CONST>
1

>  <SCORE.INTER.POLAR>
0

>  <SCORE.INTER.REPUL>
0

>  <SCORE.INTER.ROT>
10

>  <SCORE.INTER.VDW>
-27.3531

>  <SCORE.INTER.norm>
-0.298828

>  <SCORE.INTRA>
3.44455

>  <SCORE.INTRA.DIHEDRAL>
4.12751

>  <SCORE.INTRA.DIHEDRAL.0>
15.8713

>  <SCORE.INTRA.POLAR>
0

>  <SCORE.INTRA.POLAR.0>
0

>  <SCORE.INTRA.REPUL>
0

>  <SCORE.INTRA.REPUL.0>
0

>  <SCORE.INTRA.VDW>
1.38079

>  <SCORE.INTRA.VDW.0>
-0.89017

>  <SCORE.INTRA.norm>
0.0861136

>  <SCORE.RESTR>
0

>  <SCORE.RESTR.CAVITY>
0

>  <SCORE.RESTR.norm>
0

>  <SCORE.SYSTEM>
-1.03732

>  <SCORE.SYSTEM.CONST>
0

>  <SCORE.SYSTEM.DIHEDRAL>
0.189416

>  <SCORE.SYSTEM.VDW>
-1.13202

>  <SCORE.SYSTEM.norm>
-0.0259329

>  <SCORE.heavy>
40

>  <SCORE.norm>
-0.238647

$$$$
64143
  RxDock  02242109583D
librxdock.so/0.1.0
 44 47  0  0  0  0  0  0  0  0999 V2000
  -51.3903   -4.0125   20.4258 S   0  0  0  0  0  0
  -46.1699   -1.2345   20.5204 O   0  0  0  0  0  0
  -47.9282   -4.7340   18.0215 O   0  0  0  0  0  0
  -50.1242   -6.2035   17.4353 O   0  0  0  0  0  0
  -54.3352   -9.0784   16.6079 O   0  0  0  0  0  0
  -47.4047   -1.8315   18.2701 N   0  0  0  0  0  0
  -44.2078   -0.5687   19.4595 N   0  0  0  0  0  0
  -51.1034   -4.1049   17.5467 N   0  0  0  0  0  0
  -47.3760    1.1288   17.8295 C   0  0  0  0  0  0
  -48.6817    0.3156   17.8959 C   0  0  0  0  0  0
  -46.2031    0.2273   17.4055 C   0  0  0  0  0  0
  -48.4964   -0.9625   18.7353 C   0  0  0  0  0  0
  -47.0908    1.8903   19.1353 C   0  0  0  0  0  0
  -49.8553    1.1707   18.4017 C   0  0  0  0  0  0
  -46.1263   -1.1229   18.1341 C   0  0  0  0  0  0
  -48.2742    2.7586   19.5521 C   0  0  0  0  0  0
  -49.5470    1.9316   19.6875 C   0  0  0  0  0  0
  -47.7586   -2.5422   17.0410 C   0  0  0  0  0  0
  -45.5239   -0.9955   19.5036 C   0  0  0  0  0  0
  -48.6744   -3.7449   17.3086 C   0  0  0  0  0  0
  -49.9584   -3.4166   18.1048 C   0  0  0  0  0  0
  -43.4091   -0.3453   20.6429 C   0  0  0  0  0  0
  -49.7894   -3.7696   19.5909 C   0  0  0  0  0  0
  -43.2898   -1.6561   21.4286 C   0  0  0  0  0  0
  -42.0164    0.1368   20.2235 C   0  0  0  0  0  0
  -44.0847    0.7176   21.5170 C   0  0  0  0  0  0
  -51.0843   -5.4586   17.2570 C   0  0  0  0  0  0
  -52.3300   -6.0092   16.6638 C   0  0  0  0  0  0
  -51.3769   -5.7799   20.6978 C   0  0  0  0  0  0
  -52.7421   -7.3149   16.9302 C   0  0  0  0  0  0
  -53.0924   -5.1943   15.8269 C   0  0  0  0  0  0
  -50.2411   -6.5254   20.3822 C   0  0  0  0  0  0
  -52.5024   -6.4129   21.2250 C   0  0  0  0  0  0
  -53.9167   -7.8056   16.3598 C   0  0  0  0  0  0
  -51.9309   -8.1957   17.8266 C   0  0  0  0  0  0
  -54.2669   -5.6851   15.2565 C   0  0  0  0  0  0
  -50.2307   -7.9040   20.5940 C   0  0  0  0  0  0
  -52.4920   -7.7916   21.4369 C   0  0  0  0  0  0
  -54.6790   -6.9907   15.5228 C   0  0  0  0  0  0
  -51.3562   -8.5371   21.1212 C   0  0  0  0  0  0
  -43.7445   -0.4895   18.5593 H   0  0  0  0  0  0
  -47.1342   -4.9339   17.4969 H   0  0  0  0  0  0
  -51.9546   -3.5727   17.3886 H   0  0  0  0  0  0
  -54.2116   -9.6155   15.8065 H   0  0  0  0  0  0
  1 23  1  0  0  0
  1 29  1  0  0  0
  2 19  2  0  0  0
  3 20  1  0  0  0
  3 42  1  0  0  0
  4 27  2  0  0  0
  5 34  1  0  0  0
  5 44  1  0  0  0
  6 12  1  0  0  0
  6 15  1  0  0  0
  6 18  1  0  0  0
  7 19  1  0  0  0
  7 22  1  0  0  0
  7 41  1  0  0  0
  8 21  1  0  0  0
  8 27  1  0  0  0
  8 43  1  0  0  0
  9 10  1  0  0  0
  9 11  1  0  0  0
  9 13  1  0  0  0
 10 12  1  0  0  0
 10 14  1  0  0  0
 11 15  1  0  0  0
 13 16  1  0  0  0
 14 17  1  0  0  0
 15 19  1  0  0  0
 16 17  1  0  0  0
 18 20  1  0  0  0
 20 21  1  0  0  0
 21 23  1  0  0  0
 22 24  1  0  0  0
 22 25  1  0  0  0
 22 26  1  0  0  0
 27 28  1  0  0  0
 28 30  2  0  0  0
 28 31  1  0  0  0
 29 32  2  0  0  0
 29 33  1  0  0  0
 30 34  1  0  0  0
 30 35  1  0  0  0
 31 36  2  0  0  0
 32 37  1  0  0  0
 33 38  2  0  0  0
 34 39  2  0  0  0
 36 39  1  0  0  0
 37 40  2  0  0  0
 38 40  1  0  0  0
M  END
>  <CHROM.0>
56.66288362,65.18236470,57.83289300

>  <CHROM.1>
109.37726409,5.55836077,-55.29428076,-108.43310783,-78.16416634,60.68250872
49.00124036,-12.36140297,-67.96251360,-100.46461081,-34.60762324,34.08706946
-49.26752449,-3.37171115,18.75104582,-2.54814090,-0.58961658,-0.45772221

>  <Name>
64143

>  <PUBCHEM_ATOM_DEF_STEREO_COUNT>
5

>  <PUBCHEM_ATOM_UDEF_STEREO_COUNT>
0

>  <PUBCHEM_BOND_DEF_STEREO_COUNT>
0

>  <PUBCHEM_BOND_UDEF_STEREO_COUNT>
0

>  <PUBCHEM_CACTVS_TAUTO_COUNT>
12

>  <PUBCHEM_COMPONENT_COUNT>
1

>  <PUBCHEM_COMPOUND_CID>
64143

>  <PUBCHEM_CONFORMER_DIVERSEORDER>
1
21
84
153
101
123
82
146
125
17
85
73
20
32
151
113
8
57
53
6
52
117
108
155
94
19
118
148
88
54
130
70
105
150
142
135
56
2
77
61
92
106
139
116
7
51
96
80
93
34
132
115
24
147
122
121
67
36
124
66
145
141
112
44
110
58
104
11
79
149
50
143
60
10
46
100
74
55
129
25
30
131
114
97
47
102
111
140
134
81
16
28
109
144
152
48
86
45
126
39
87
65
29
4
95
156
35
133
27
62
78
49
75
98
99
68
15
63
90
69
107
3
103
64
41
59
76
22
9
136
12
157
33
26
23
119
89
38
71
31
138
154
14
43
127
120
72
128
18
37
42
40
137
83
5
91
13

>  <PUBCHEM_CONFORMER_ID>
0000FA8F00000001

>  <PUBCHEM_CONFORMER_RMSD>
1.4

>  <PUBCHEM_COORDINATE_TYPE>
2
5
10

>  <PUBCHEM_EFFECTIVE_ROTOR_COUNT>
13.6

>  <PUBCHEM_FEATURE_SELFOVERLAP>
66.023

>  <PUBCHEM_HEAVY_ATOM_COUNT>
40

>  <PUBCHEM_ISOTOPIC_ATOM_COUNT>
0

>  <PUBCHEM_MMFF94_ENERGY>
106.283

>  <PUBCHEM_MMFF94_PARTIAL_CHARGES>
42
1 -0.33
12 0.27
15 0.33
18 0.27
19 0.57
2 -0.57
20 0.28
21 0.3
22 0.3
23 0.23
27 0.54
28 0.09
29 0.1
3 -0.68
30 -0.14
31 -0.15
32 -0.15
33 -0.15
34 0.08
35 0.14
36 -0.15
37 -0.15
38 -0.15
39 -0.15
4 -0.57
40 -0.15
5 -0.53
59 0.37
6 -0.81
61 0.4
64 0.37
7 -0.73
74 0.15
75 0.15
76 0.15
8 -0.73
80 0.15
81 0.15
82 0.15
83 0.15
84 0.15
85 0.45

>  <PUBCHEM_PHARMACOPHORE_FEATURES>
13
1 2 acceptor
1 3 acceptor
1 3 donor
1 4 acceptor
1 5 donor
1 6 cation
1 7 donor
1 8 donor
4 22 24 25 26 hydrophobe
6 28 30 31 34 36 39 rings
6 29 32 33 37 38 40 rings
6 6 9 10 11 12 15 rings
6 9 10 13 14 16 17 rings

>  <PUBCHEM_SHAPE_FINGERPRINT>
10032420 55 18130495444200979297
10319688 77 17470141684274524266
10721379 63 18052271596134557976
11421498 54 18270101526886733871
11991303 11 17825385439061262902
13690498 29 17703225234654346413
13911987 19 18189607414530907799
15064981 113 18187641419363593252
15439362 3 18118695322292951744
19319366 153 18342181024936020931
19958102 18 18337956809306142254
20505436 4 17987259766991243505
22393880 68 17989485238265708768
23559900 14 17977103453547379345
340366 18 17766549158792973763
4409770 3 18048885387894744490
504843 32 17969224610910731106
563151 97 18410570691006883420
6058803 2 18127403450458884667
6691757 9 18267867358440949680

>  <PUBCHEM_SHAPE_MULTIPOLES>
788.61
15.86
8.74
2.82
9.48
18.24
1.5
-18.8
9.61
4.55
-3.03
-1.39
0.57
-6.09

>  <PUBCHEM_SHAPE_SELFOVERLAP>
1639.542

>  <PUBCHEM_SHAPE_VOLUME>
450.8

>  <RI>
-2.95603e+08

>  <Rbt.Current_Directory>
/root/miniconda3/envs/rdock/share/rxdock-2013.1.1_148c5bd1-0/data/ligands/prepped_ligands/Nelfinavir

>  <Rbt.Executable>
rbdock/0.1.0

>  <Rbt.Library>
librxdock.so/0.1.0

>  <Rbt.Parameter_File>
/root/miniconda3/envs/rdock/share/rxdock-2013.1.1_148c5bd1-0/data/scripts/dock.prm

>  <Rbt.Receptor>
def.prm

>  <SCORE>
-10.35

>  <SCORE.INTER>
-15.1685

>  <SCORE.INTER.CONST>
1

>  <SCORE.INTER.POLAR>
-1.4397

>  <SCORE.INTER.REPUL>
0.00743339

>  <SCORE.INTER.ROT>
10

>  <SCORE.INTER.VDW>
-25.7107

>  <SCORE.INTER.norm>
-0.379212

>  <SCORE.INTRA>
5.29719

>  <SCORE.INTRA.DIHEDRAL>
7.00024

>  <SCORE.INTRA.DIHEDRAL.0>
15.8713

>  <SCORE.INTRA.POLAR>
0

>  <SCORE.INTRA.POLAR.0>
0

>  <SCORE.INTRA.REPUL>
0

>  <SCORE.INTRA.REPUL.0>
0

>  <SCORE.INTRA.VDW>
1.79707

>  <SCORE.INTRA.VDW.0>
-0.89017

>  <SCORE.INTRA.norm>
0.13243

>  <SCORE.RESTR>
0.499119

>  <SCORE.RESTR.CAVITY>
0.499119

>  <SCORE.RESTR.norm>
0.012478

>  <SCORE.SYSTEM>
-0.977866

>  <SCORE.SYSTEM.CONST>
0

>  <SCORE.SYSTEM.DIHEDRAL>
0.175122

>  <SCORE.SYSTEM.VDW>
-1.06543

>  <SCORE.SYSTEM.norm>
-0.0244467

>  <SCORE.heavy>
40

>  <SCORE.norm>
-0.25875

$$$$
64143
  RxDock  02242109583D
librxdock.so/0.1.0
 44 47  0  0  0  0  0  0  0  0999 V2000
  -49.1247   -2.9764   13.3323 S   0  0  0  0  0  0
  -46.5253   -1.4468   17.7203 O   0  0  0  0  0  0
  -49.9435    0.1979   16.1218 O   0  0  0  0  0  0
  -48.7699   -4.7773   15.8098 O   0  0  0  0  0  0
  -49.7556   -8.9396   18.6971 O   0  0  0  0  0  0
  -49.0622   -1.2330   18.5399 N   0  0  0  0  0  0
  -45.9732    0.6041   18.6732 N   0  0  0  0  0  0
  -50.5582   -3.4350   16.4227 N   0  0  0  0  0  0
  -48.4270    0.3451   21.0026 C   0  0  0  0  0  0
  -49.3106   -0.9154   21.0335 C   0  0  0  0  0  0
  -48.4570    0.9875   19.6045 C   0  0  0  0  0  0
  -48.9684   -1.8608   19.8667 C   0  0  0  0  0  0
  -46.9951    0.0713   21.4937 C   0  0  0  0  0  0
  -49.2312   -1.6282   22.3936 C   0  0  0  0  0  0
  -48.2820    0.0062   18.4357 C   0  0  0  0  0  0
  -46.9870   -0.5881   22.8697 C   0  0  0  0  0  0
  -47.8036   -1.8748   22.8716 C   0  0  0  0  0  0
  -50.4517   -1.0293   18.1293 C   0  0  0  0  0  0
  -46.8447   -0.3726   18.2228 C   0  0  0  0  0  0
  -50.6043   -0.9749   16.6027 C   0  0  0  0  0  0
  -50.0471   -2.2064   15.8521 C   0  0  0  0  0  0
  -44.5356    0.4734   18.6044 C   0  0  0  0  0  0
  -50.3753   -2.1315   14.3525 C   0  0  0  0  0  0
  -43.8924    1.8539   18.7792 C   0  0  0  0  0  0
  -44.0639   -0.4639   19.7210 C   0  0  0  0  0  0
  -44.1442   -0.1064   17.2402 C   0  0  0  0  0  0
  -49.8633   -4.6301   16.3498 C   0  0  0  0  0  0
  -50.5352   -5.8057   16.9607 C   0  0  0  0  0  0
  -47.6236   -2.1820   13.8921 C   0  0  0  0  0  0
  -49.7996   -6.8337   17.5503 C   0  0  0  0  0  0
  -51.9285   -5.8697   16.9377 C   0  0  0  0  0  0
  -46.5209   -2.9539   14.2581 C   0  0  0  0  0  0
  -47.5556   -0.7907   13.9632 C   0  0  0  0  0  0
  -50.4570   -7.9256   18.1170 C   0  0  0  0  0  0
  -48.3052   -6.7733   17.5797 C   0  0  0  0  0  0
  -52.5859   -6.9617   17.5043 C   0  0  0  0  0  0
  -45.3501   -2.3344   14.6951 C   0  0  0  0  0  0
  -46.3846   -0.1712   14.4002 C   0  0  0  0  0  0
  -51.8503   -7.9897   18.0938 C   0  0  0  0  0  0
  -45.2821   -0.9430   14.7662 C   0  0  0  0  0  0
  -46.3486    1.4935   18.9878 H   0  0  0  0  0  0
  -50.0513    0.2173   15.1556 H   0  0  0  0  0  0
  -51.4476   -3.4040   16.9136 H   0  0  0  0  0  0
  -49.0536   -8.5622   19.2545 H   0  0  0  0  0  0
  1 23  1  0  0  0
  1 29  1  0  0  0
  2 19  2  0  0  0
  3 20  1  0  0  0
  3 42  1  0  0  0
  4 27  2  0  0  0
  5 34  1  0  0  0
  5 44  1  0  0  0
  6 12  1  0  0  0
  6 15  1  0  0  0
  6 18  1  0  0  0
  7 19  1  0  0  0
  7 22  1  0  0  0
  7 41  1  0  0  0
  8 21  1  0  0  0
  8 27  1  0  0  0
  8 43  1  0  0  0
  9 10  1  0  0  0
  9 11  1  0  0  0
  9 13  1  0  0  0
 10 12  1  0  0  0
 10 14  1  0  0  0
 11 15  1  0  0  0
 13 16  1  0  0  0
 14 17  1  0  0  0
 15 19  1  0  0  0
 16 17  1  0  0  0
 18 20  1  0  0  0
 20 21  1  0  0  0
 21 23  1  0  0  0
 22 24  1  0  0  0
 22 25  1  0  0  0
 22 26  1  0  0  0
 27 28  1  0  0  0
 28 30  2  0  0  0
 28 31  1  0  0  0
 29 32  2  0  0  0
 29 33  1  0  0  0
 30 34  1  0  0  0
 30 35  1  0  0  0
 31 36  2  0  0  0
 32 37  1  0  0  0
 33 38  2  0  0  0
 34 39  2  0  0  0
 36 39  1  0  0  0
 37 40  2  0  0  0
 38 40  1  0  0  0
M  END
>  <CHROM.0>
46.37183966,-57.52709143,-56.66078964

>  <CHROM.1>
-53.79602866,130.78834288,-179.89101810,44.50378928,-154.83706702,163.06431044
-152.95915842,25.10640235,-66.46291529,172.58922069,-85.85150571,33.04799457
-48.32870869,-2.35779562,17.58025320,-2.72801456,0.94881163,1.44088883

>  <Name>
64143

>  <PUBCHEM_ATOM_DEF_STEREO_COUNT>
5

>  <PUBCHEM_ATOM_UDEF_STEREO_COUNT>
0

>  <PUBCHEM_BOND_DEF_STEREO_COUNT>
0

>  <PUBCHEM_BOND_UDEF_STEREO_COUNT>
0

>  <PUBCHEM_CACTVS_TAUTO_COUNT>
12

>  <PUBCHEM_COMPONENT_COUNT>
1

>  <PUBCHEM_COMPOUND_CID>
64143

>  <PUBCHEM_CONFORMER_DIVERSEORDER>
1
21
84
153
101
123
82
146
125
17
85
73
20
32
151
113
8
57
53
6
52
117
108
155
94
19
118
148
88
54
130
70
105
150
142
135
56
2
77
61
92
106
139
116
7
51
96
80
93
34
132
115
24
147
122
121
67
36
124
66
145
141
112
44
110
58
104
11
79
149
50
143
60
10
46
100
74
55
129
25
30
131
114
97
47
102
111
140
134
81
16
28
109
144
152
48
86
45
126
39
87
65
29
4
95
156
35
133
27
62
78
49
75
98
99
68
15
63
90
69
107
3
103
64
41
59
76
22
9
136
12
157
33
26
23
119
89
38
71
31
138
154
14
43
127
120
72
128
18
37
42
40
137
83
5
91
13

>  <PUBCHEM_CONFORMER_ID>
0000FA8F00000001

>  <PUBCHEM_CONFORMER_RMSD>
1.4

>  <PUBCHEM_COORDINATE_TYPE>
2
5
10

>  <PUBCHEM_EFFECTIVE_ROTOR_COUNT>
13.6

>  <PUBCHEM_FEATURE_SELFOVERLAP>
66.023

>  <PUBCHEM_HEAVY_ATOM_COUNT>
40

>  <PUBCHEM_ISOTOPIC_ATOM_COUNT>
0

>  <PUBCHEM_MMFF94_ENERGY>
106.283

>  <PUBCHEM_MMFF94_PARTIAL_CHARGES>
42
1 -0.33
12 0.27
15 0.33
18 0.27
19 0.57
2 -0.57
20 0.28
21 0.3
22 0.3
23 0.23
27 0.54
28 0.09
29 0.1
3 -0.68
30 -0.14
31 -0.15
32 -0.15
33 -0.15
34 0.08
35 0.14
36 -0.15
37 -0.15
38 -0.15
39 -0.15
4 -0.57
40 -0.15
5 -0.53
59 0.37
6 -0.81
61 0.4
64 0.37
7 -0.73
74 0.15
75 0.15
76 0.15
8 -0.73
80 0.15
81 0.15
82 0.15
83 0.15
84 0.15
85 0.45

>  <PUBCHEM_PHARMACOPHORE_FEATURES>
13
1 2 acceptor
1 3 acceptor
1 3 donor
1 4 acceptor
1 5 donor
1 6 cation
1 7 donor
1 8 donor
4 22 24 25 26 hydrophobe
6 28 30 31 34 36 39 rings
6 29 32 33 37 38 40 rings
6 6 9 10 11 12 15 rings
6 9 10 13 14 16 17 rings

>  <PUBCHEM_SHAPE_FINGERPRINT>
10032420 55 18130495444200979297
10319688 77 17470141684274524266
10721379 63 18052271596134557976
11421498 54 18270101526886733871
11991303 11 17825385439061262902
13690498 29 17703225234654346413
13911987 19 18189607414530907799
15064981 113 18187641419363593252
15439362 3 18118695322292951744
19319366 153 18342181024936020931
19958102 18 18337956809306142254
20505436 4 17987259766991243505
22393880 68 17989485238265708768
23559900 14 17977103453547379345
340366 18 17766549158792973763
4409770 3 18048885387894744490
504843 32 17969224610910731106
563151 97 18410570691006883420
6058803 2 18127403450458884667
6691757 9 18267867358440949680

>  <PUBCHEM_SHAPE_MULTIPOLES>
788.61
15.86
8.74
2.82
9.48
18.24
1.5
-18.8
9.61
4.55
-3.03
-1.39
0.57
-6.09

>  <PUBCHEM_SHAPE_SELFOVERLAP>
1639.542

>  <PUBCHEM_SHAPE_VOLUME>
450.8

>  <RI>
-2.95603e+08

>  <Rbt.Current_Directory>
/root/miniconda3/envs/rdock/share/rxdock-2013.1.1_148c5bd1-0/data/ligands/prepped_ligands/Nelfinavir

>  <Rbt.Executable>
rbdock/0.1.0

>  <Rbt.Library>
librxdock.so/0.1.0

>  <Rbt.Parameter_File>
/root/miniconda3/envs/rdock/share/rxdock-2013.1.1_148c5bd1-0/data/scripts/dock.prm

>  <Rbt.Receptor>
def.prm

>  <SCORE>
-4.97466

>  <SCORE.INTER>
-10.0606

>  <SCORE.INTER.CONST>
1

>  <SCORE.INTER.POLAR>
-0.153824

>  <SCORE.INTER.REPUL>
0

>  <SCORE.INTER.ROT>
10

>  <SCORE.INTER.VDW>
-24.9376

>  <SCORE.INTER.norm>
-0.251516

>  <SCORE.INTRA>
3.39286

>  <SCORE.INTRA.DIHEDRAL>
-0.19635

>  <SCORE.INTRA.DIHEDRAL.0>
15.8713

>  <SCORE.INTRA.POLAR>
0

>  <SCORE.INTRA.POLAR.0>
0

>  <SCORE.INTRA.REPUL>
0

>  <SCORE.INTRA.REPUL.0>
0

>  <SCORE.INTRA.VDW>
3.49104

>  <SCORE.INTRA.VDW.0>
-0.89017

>  <SCORE.INTRA.norm>
0.0848216

>  <SCORE.RESTR>
2.38813

>  <SCORE.RESTR.CAVITY>
2.38813

>  <SCORE.RESTR.norm>
0.0597033

>  <SCORE.SYSTEM>
-0.695027

>  <SCORE.SYSTEM.CONST>
0

>  <SCORE.SYSTEM.DIHEDRAL>
0.50343

>  <SCORE.SYSTEM.POLAR>
-0.00841044

>  <SCORE.SYSTEM.VDW>
-0.918147

>  <SCORE.SYSTEM.norm>
-0.0173757

>  <SCORE.heavy>
40

>  <SCORE.norm>
-0.124367

$$$$
64143
  RxDock  02242109583D
librxdock.so/0.1.0
 44 47  0  0  0  0  0  0  0  0999 V2000
  -46.1992   -0.5406   20.5532 S   0  0  0  0  0  0
  -50.2144   -4.3945   17.9338 O   0  0  0  0  0  0
  -48.8840    0.0401   21.0988 O   0  0  0  0  0  0
  -49.7389    0.3530   17.4032 O   0  0  0  0  0  0
  -52.9938   -3.3280   14.5568 O   0  0  0  0  0  0
  -50.7082   -3.0109   20.1575 N   0  0  0  0  0  0
  -48.9966   -6.0015   19.0970 N   0  0  0  0  0  0
  -49.0508   -1.7924   17.9504 N   0  0  0  0  0  0
  -50.8378   -5.4197   21.9295 C   0  0  0  0  0  0
  -51.9449   -4.3499   21.9064 C   0  0  0  0  0  0
  -49.5002   -4.8181   21.4634 C   0  0  0  0  0  0
  -51.9864   -3.6248   20.5481 C   0  0  0  0  0  0
  -51.2230   -6.6814   21.1382 C   0  0  0  0  0  0
  -53.3123   -4.9433   22.2836 C   0  0  0  0  0  0
  -49.5839   -3.9542   20.1960 C   0  0  0  0  0  0
  -52.5631   -7.2482   21.5976 C   0  0  0  0  0  0
  -53.6683   -6.2035   21.5010 C   0  0  0  0  0  0
  -50.4230   -1.8032   20.9328 C   0  0  0  0  0  0
  -49.6379   -4.7841   18.9458 C   0  0  0  0  0  0
  -49.5451   -0.8098   20.1587 C   0  0  0  0  0  0
  -48.4848   -1.4612   19.2412 C   0  0  0  0  0  0
  -48.9258   -6.9933   18.0483 C   0  0  0  0  0  0
  -47.2633   -0.5436   19.0745 C   0  0  0  0  0  0
  -50.3035   -7.6411   17.8694 C   0  0  0  0  0  0
  -48.4991   -6.3127   16.7434 C   0  0  0  0  0  0
  -47.9002   -8.0657   18.4335 C   0  0  0  0  0  0
  -49.6368   -0.8409   17.1331 C   0  0  0  0  0  0
  -50.1945   -1.3456   15.8521 C   0  0  0  0  0  0
  -44.5830   -0.7596   19.8200 C   0  0  0  0  0  0
  -51.3577   -2.1148   15.8229 C   0  0  0  0  0  0
  -49.5327   -1.0367   14.6637 C   0  0  0  0  0  0
  -44.3782   -1.7595   18.8693 C   0  0  0  0  0  0
  -43.5270    0.0690   20.1993 C   0  0  0  0  0  0
  -51.8592   -2.5750   14.6054 C   0  0  0  0  0  0
  -52.0740   -2.4506   17.0924 C   0  0  0  0  0  0
  -50.0341   -1.4971   13.4462 C   0  0  0  0  0  0
  -43.1174   -1.9306   18.2977 C   0  0  0  0  0  0
  -42.2662   -0.1022   19.6275 C   0  0  0  0  0  0
  -51.1972   -2.2663   13.4170 C   0  0  0  0  0  0
  -42.0614   -1.1020   18.6769 C   0  0  0  0  0  0
  -48.4738   -6.1816   19.9486 H   0  0  0  0  0  0
  -48.4728   -0.5317   21.7693 H   0  0  0  0  0  0
  -48.9889   -2.7551   17.6306 H   0  0  0  0  0  0
  -53.5124   -3.0712   13.7751 H   0  0  0  0  0  0
  1 23  1  0  0  0
  1 29  1  0  0  0
  2 19  2  0  0  0
  3 20  1  0  0  0
  3 42  1  0  0  0
  4 27  2  0  0  0
  5 34  1  0  0  0
  5 44  1  0  0  0
  6 12  1  0  0  0
  6 15  1  0  0  0
  6 18  1  0  0  0
  7 19  1  0  0  0
  7 22  1  0  0  0
  7 41  1  0  0  0
  8 21  1  0  0  0
  8 27  1  0  0  0
  8 43  1  0  0  0
  9 10  1  0  0  0
  9 11  1  0  0  0
  9 13  1  0  0  0
 10 12  1  0  0  0
 10 14  1  0  0  0
 11 15  1  0  0  0
 13 16  1  0  0  0
 14 17  1  0  0  0
 15 19  1  0  0  0
 16 17  1  0  0  0
 18 20  1  0  0  0
 20 21  1  0  0  0
 21 23  1  0  0  0
 22 24  1  0  0  0
 22 25  1  0  0  0
 22 26  1  0  0  0
 27 28  1  0  0  0
 28 30  2  0  0  0
 28 31  1  0  0  0
 29 32  2  0  0  0
 29 33  1  0  0  0
 30 34  1  0  0  0
 30 35  1  0  0  0
 31 36  2  0  0  0
 32 37  1  0  0  0
 33 38  2  0  0  0
 34 39  2  0  0  0
 36 39  1  0  0  0
 37 40  2  0  0  0
 38 40  1  0  0  0
M  END
>  <CHROM.0>
-179.61445446,-65.12246139,-169.54770176

>  <CHROM.1>
132.71463126,-48.20449609,50.00526950,141.91147234,-152.21274934,-72.44317469
57.80392112,22.68551719,-157.21312283,-153.01572809,-161.00648858,-106.98050237
-49.17010947,-3.05800137,18.78367428,-0.31065056,0.52773176,2.09736739

>  <Name>
64143

>  <PUBCHEM_ATOM_DEF_STEREO_COUNT>
5

>  <PUBCHEM_ATOM_UDEF_STEREO_COUNT>
0

>  <PUBCHEM_BOND_DEF_STEREO_COUNT>
0

>  <PUBCHEM_BOND_UDEF_STEREO_COUNT>
0

>  <PUBCHEM_CACTVS_TAUTO_COUNT>
12

>  <PUBCHEM_COMPONENT_COUNT>
1

>  <PUBCHEM_COMPOUND_CID>
64143

>  <PUBCHEM_CONFORMER_DIVERSEORDER>
1
21
84
153
101
123
82
146
125
17
85
73
20
32
151
113
8
57
53
6
52
117
108
155
94
19
118
148
88
54
130
70
105
150
142
135
56
2
77
61
92
106
139
116
7
51
96
80
93
34
132
115
24
147
122
121
67
36
124
66
145
141
112
44
110
58
104
11
79
149
50
143
60
10
46
100
74
55
129
25
30
131
114
97
47
102
111
140
134
81
16
28
109
144
152
48
86
45
126
39
87
65
29
4
95
156
35
133
27
62
78
49
75
98
99
68
15
63
90
69
107
3
103
64
41
59
76
22
9
136
12
157
33
26
23
119
89
38
71
31
138
154
14
43
127
120
72
128
18
37
42
40
137
83
5
91
13

>  <PUBCHEM_CONFORMER_ID>
0000FA8F00000001

>  <PUBCHEM_CONFORMER_RMSD>
1.4

>  <PUBCHEM_COORDINATE_TYPE>
2
5
10

>  <PUBCHEM_EFFECTIVE_ROTOR_COUNT>
13.6

>  <PUBCHEM_FEATURE_SELFOVERLAP>
66.023

>  <PUBCHEM_HEAVY_ATOM_COUNT>
40

>  <PUBCHEM_ISOTOPIC_ATOM_COUNT>
0

>  <PUBCHEM_MMFF94_ENERGY>
106.283

>  <PUBCHEM_MMFF94_PARTIAL_CHARGES>
42
1 -0.33
12 0.27
15 0.33
18 0.27
19 0.57
2 -0.57
20 0.28
21 0.3
22 0.3
23 0.23
27 0.54
28 0.09
29 0.1
3 -0.68
30 -0.14
31 -0.15
32 -0.15
33 -0.15
34 0.08
35 0.14
36 -0.15
37 -0.15
38 -0.15
39 -0.15
4 -0.57
40 -0.15
5 -0.53
59 0.37
6 -0.81
61 0.4
64 0.37
7 -0.73
74 0.15
75 0.15
76 0.15
8 -0.73
80 0.15
81 0.15
82 0.15
83 0.15
84 0.15
85 0.45

>  <PUBCHEM_PHARMACOPHORE_FEATURES>
13
1 2 acceptor
1 3 acceptor
1 3 donor
1 4 acceptor
1 5 donor
1 6 cation
1 7 donor
1 8 donor
4 22 24 25 26 hydrophobe
6 28 30 31 34 36 39 rings
6 29 32 33 37 38 40 rings
6 6 9 10 11 12 15 rings
6 9 10 13 14 16 17 rings

>  <PUBCHEM_SHAPE_FINGERPRINT>
10032420 55 18130495444200979297
10319688 77 17470141684274524266
10721379 63 18052271596134557976
11421498 54 18270101526886733871
11991303 11 17825385439061262902
13690498 29 17703225234654346413
13911987 19 18189607414530907799
15064981 113 18187641419363593252
15439362 3 18118695322292951744
19319366 153 18342181024936020931
19958102 18 18337956809306142254
20505436 4 17987259766991243505
22393880 68 17989485238265708768
23559900 14 17977103453547379345
340366 18 17766549158792973763
4409770 3 18048885387894744490
504843 32 17969224610910731106
563151 97 18410570691006883420
6058803 2 18127403450458884667
6691757 9 18267867358440949680

>  <PUBCHEM_SHAPE_MULTIPOLES>
788.61
15.86
8.74
2.82
9.48
18.24
1.5
-18.8
9.61
4.55
-3.03
-1.39
0.57
-6.09

>  <PUBCHEM_SHAPE_SELFOVERLAP>
1639.542

>  <PUBCHEM_SHAPE_VOLUME>
450.8

>  <RI>
-2.95603e+08

>  <Rbt.Current_Directory>
/root/miniconda3/envs/rdock/share/rxdock-2013.1.1_148c5bd1-0/data/ligands/prepped_ligands/Nelfinavir

>  <Rbt.Executable>
rbdock/0.1.0

>  <Rbt.Library>
librxdock.so/0.1.0

>  <Rbt.Parameter_File>
/root/miniconda3/envs/rdock/share/rxdock-2013.1.1_148c5bd1-0/data/scripts/dock.prm

>  <Rbt.Receptor>
def.prm

>  <SCORE>
-0.402659

>  <SCORE.INTER>
-9.43147

>  <SCORE.INTER.CONST>
1

>  <SCORE.INTER.POLAR>
-0.99804

>  <SCORE.INTER.REPUL>
0

>  <SCORE.INTER.ROT>
10

>  <SCORE.INTER.VDW>
-21.4381

>  <SCORE.INTER.norm>
-0.235787

>  <SCORE.INTRA>
8.63107

>  <SCORE.INTRA.DIHEDRAL>
12.4449

>  <SCORE.INTRA.DIHEDRAL.0>
15.8713

>  <SCORE.INTRA.POLAR>
0

>  <SCORE.INTRA.POLAR.0>
0

>  <SCORE.INTRA.REPUL>
0

>  <SCORE.INTRA.REPUL.0>
0

>  <SCORE.INTRA.VDW>
2.40863

>  <SCORE.INTRA.VDW.0>
-0.89017

>  <SCORE.INTRA.norm>
0.215777

>  <SCORE.RESTR>
1.30965

>  <SCORE.RESTR.CAVITY>
1.30965

>  <SCORE.RESTR.norm>
0.0327413

>  <SCORE.SYSTEM>
-0.911908

>  <SCORE.SYSTEM.CONST>
0

>  <SCORE.SYSTEM.DIHEDRAL>
0.383777

>  <SCORE.SYSTEM.POLAR>
-0.0183156

>  <SCORE.SYSTEM.VDW>
-1.04152

>  <SCORE.SYSTEM.norm>
-0.0227977

>  <SCORE.heavy>
40

>  <SCORE.norm>
-0.0100665

$$$$
64143
  RxDock  02242109583D
librxdock.so/0.1.0
 44 47  0  0  0  0  0  0  0  0999 V2000
  -48.0858   -0.1983   13.0516 S   0  0  0  0  0  0
  -53.5004   -5.5820   17.5690 O   0  0  0  0  0  0
  -51.8633   -2.0626   15.4501 O   0  0  0  0  0  0
  -48.5110   -0.1895   17.5298 O   0  0  0  0  0  0
  -43.5505    0.4239   18.8321 O   0  0  0  0  0  0
  -51.3017   -3.9984   17.3442 N   0  0  0  0  0  0
  -53.4597   -5.9307   15.2678 N   0  0  0  0  0  0
  -48.2447   -1.5208   15.6503 N   0  0  0  0  0  0
  -50.1903   -6.7326   17.8411 C   0  0  0  0  0  0
  -49.9376   -5.5515   18.7959 C   0  0  0  0  0  0
  -50.4984   -6.2203   16.4231 C   0  0  0  0  0  0
  -51.0701   -4.5117   18.7029 C   0  0  0  0  0  0
  -51.2706   -7.6931   18.3674 C   0  0  0  0  0  0
  -49.7131   -6.0298   20.2399 C   0  0  0  0  0  0
  -51.5080   -5.0644   16.3561 C   0  0  0  0  0  0
  -50.9602   -8.1701   19.7831 C   0  0  0  0  0  0
  -50.7848   -6.9949   20.7373 C   0  0  0  0  0  0
  -50.2499   -3.0722   16.9237 C   0  0  0  0  0  0
  -52.9261   -5.5410   16.4842 C   0  0  0  0  0  0
  -50.5048   -2.5015   15.5215 C   0  0  0  0  0  0
  -49.5788   -1.3300   15.1211 C   0  0  0  0  0  0
  -54.8006   -6.4497   15.1227 C   0  0  0  0  0  0
  -49.5337   -1.1616   13.5942 C   0  0  0  0  0  0
  -55.8040   -5.4140   15.6427 C   0  0  0  0  0  0
  -55.0698   -6.7345   13.6414 C   0  0  0  0  0  0
  -54.9331   -7.7446   15.9325 C   0  0  0  0  0  0
  -47.8227   -0.9243   16.8262 C   0  0  0  0  0  0
  -46.4167   -1.1979   17.2202 C   0  0  0  0  0  0
  -48.8696    1.2662   12.3894 C   0  0  0  0  0  0
  -45.6411   -0.2270   17.8537 C   0  0  0  0  0  0
  -45.8749   -2.4536   16.9459 C   0  0  0  0  0  0
  -50.1272    1.6537   12.8520 C   0  0  0  0  0  0
  -48.2239    2.0206   11.4100 C   0  0  0  0  0  0
  -44.3238   -0.5118   18.2130 C   0  0  0  0  0  0
  -46.2141    1.1222   18.1520 C   0  0  0  0  0  0
  -44.5574   -2.7384   17.3051 C   0  0  0  0  0  0
  -50.7389    2.7958   12.3353 C   0  0  0  0  0  0
  -48.8357    3.1628   10.8933 C   0  0  0  0  0  0
  -43.7818   -1.7674   17.9384 C   0  0  0  0  0  0
  -50.0931    3.5503   11.3558 C   0  0  0  0  0  0
  -52.9258   -5.7676   14.4196 H   0  0  0  0  0  0
  -52.4245   -2.8056   15.7306 H   0  0  0  0  0  0
  -47.6110   -2.1357   15.1472 H   0  0  0  0  0  0
  -44.1053    0.9444   19.4380 H   0  0  0  0  0  0
  1 23  1  0  0  0
  1 29  1  0  0  0
  2 19  2  0  0  0
  3 20  1  0  0  0
  3 42  1  0  0  0
  4 27  2  0  0  0
  5 34  1  0  0  0
  5 44  1  0  0  0
  6 12  1  0  0  0
  6 15  1  0  0  0
  6 18  1  0  0  0
  7 19  1  0  0  0
  7 22  1  0  0  0
  7 41  1  0  0  0
  8 21  1  0  0  0
  8 27  1  0  0  0
  8 43  1  0  0  0
  9 10  1  0  0  0
  9 11  1  0  0  0
  9 13  1  0  0  0
 10 12  1  0  0  0
 10 14  1  0  0  0
 11 15  1  0  0  0
 13 16  1  0  0  0
 14 17  1  0  0  0
 15 19  1  0  0  0
 16 17  1  0  0  0
 18 20  1  0  0  0
 20 21  1  0  0  0
 21 23  1  0  0  0
 22 24  1  0  0  0
 22 25  1  0  0  0
 22 26  1  0  0  0
 27 28  1  0  0  0
 28 30  2  0  0  0
 28 31  1  0  0  0
 29 32  2  0  0  0
 29 33  1  0  0  0
 30 34  1  0  0  0
 30 35  1  0  0  0
 31 36  2  0  0  0
 32 37  1  0  0  0
 33 38  2  0  0  0
 34 39  2  0  0  0
 36 39  1  0  0  0
 37 40  2  0  0  0
 38 40  1  0  0  0
M  END
>  <CHROM.0>
-56.43192862,-63.82692497,-150.85231327

>  <CHROM.1>
-114.12080466,25.62823463,-52.81611072,36.14791232,-178.40256853,58.15937798
-97.13938398,-34.58327631,47.35011284,157.90181533,-37.73265366,-34.02835462
-49.74487749,-2.73055476,16.12954918,0.84571830,-0.52833196,-0.74890977

>  <Name>
64143

>  <PUBCHEM_ATOM_DEF_STEREO_COUNT>
5

>  <PUBCHEM_ATOM_UDEF_STEREO_COUNT>
0

>  <PUBCHEM_BOND_DEF_STEREO_COUNT>
0

>  <PUBCHEM_BOND_UDEF_STEREO_COUNT>
0

>  <PUBCHEM_CACTVS_TAUTO_COUNT>
12

>  <PUBCHEM_COMPONENT_COUNT>
1

>  <PUBCHEM_COMPOUND_CID>
64143

>  <PUBCHEM_CONFORMER_DIVERSEORDER>
1
21
84
153
101
123
82
146
125
17
85
73
20
32
151
113
8
57
53
6
52
117
108
155
94
19
118
148
88
54
130
70
105
150
142
135
56
2
77
61
92
106
139
116
7
51
96
80
93
34
132
115
24
147
122
121
67
36
124
66
145
141
112
44
110
58
104
11
79
149
50
143
60
10
46
100
74
55
129
25
30
131
114
97
47
102
111
140
134
81
16
28
109
144
152
48
86
45
126
39
87
65
29
4
95
156
35
133
27
62
78
49
75
98
99
68
15
63
90
69
107
3
103
64
41
59
76
22
9
136
12
157
33
26
23
119
89
38
71
31
138
154
14
43
127
120
72
128
18
37
42
40
137
83
5
91
13

>  <PUBCHEM_CONFORMER_ID>
0000FA8F00000001

>  <PUBCHEM_CONFORMER_RMSD>
1.4

>  <PUBCHEM_COORDINATE_TYPE>
2
5
10

>  <PUBCHEM_EFFECTIVE_ROTOR_COUNT>
13.6

>  <PUBCHEM_FEATURE_SELFOVERLAP>
66.023

>  <PUBCHEM_HEAVY_ATOM_COUNT>
40

>  <PUBCHEM_ISOTOPIC_ATOM_COUNT>
0

>  <PUBCHEM_MMFF94_ENERGY>
106.283

>  <PUBCHEM_MMFF94_PARTIAL_CHARGES>
42
1 -0.33
12 0.27
15 0.33
18 0.27
19 0.57
2 -0.57
20 0.28
21 0.3
22 0.3
23 0.23
27 0.54
28 0.09
29 0.1
3 -0.68
30 -0.14
31 -0.15
32 -0.15
33 -0.15
34 0.08
35 0.14
36 -0.15
37 -0.15
38 -0.15
39 -0.15
4 -0.57
40 -0.15
5 -0.53
59 0.37
6 -0.81
61 0.4
64 0.37
7 -0.73
74 0.15
75 0.15
76 0.15
8 -0.73
80 0.15
81 0.15
82 0.15
83 0.15
84 0.15
85 0.45

>  <PUBCHEM_PHARMACOPHORE_FEATURES>
13
1 2 acceptor
1 3 acceptor
1 3 donor
1 4 acceptor
1 5 donor
1 6 cation
1 7 donor
1 8 donor
4 22 24 25 26 hydrophobe
6 28 30 31 34 36 39 rings
6 29 32 33 37 38 40 rings
6 6 9 10 11 12 15 rings
6 9 10 13 14 16 17 rings

>  <PUBCHEM_SHAPE_FINGERPRINT>
10032420 55 18130495444200979297
10319688 77 17470141684274524266
10721379 63 18052271596134557976
11421498 54 18270101526886733871
11991303 11 17825385439061262902
13690498 29 17703225234654346413
13911987 19 18189607414530907799
15064981 113 18187641419363593252
15439362 3 18118695322292951744
19319366 153 18342181024936020931
19958102 18 18337956809306142254
20505436 4 17987259766991243505
22393880 68 17989485238265708768
23559900 14 17977103453547379345
340366 18 17766549158792973763
4409770 3 18048885387894744490
504843 32 17969224610910731106
563151 97 18410570691006883420
6058803 2 18127403450458884667
6691757 9 18267867358440949680

>  <PUBCHEM_SHAPE_MULTIPOLES>
788.61
15.86
8.74
2.82
9.48
18.24
1.5
-18.8
9.61
4.55
-3.03
-1.39
0.57
-6.09

>  <PUBCHEM_SHAPE_SELFOVERLAP>
1639.542

>  <PUBCHEM_SHAPE_VOLUME>
450.8

>  <RI>
-2.95603e+08

>  <Rbt.Current_Directory>
/root/miniconda3/envs/rdock/share/rxdock-2013.1.1_148c5bd1-0/data/ligands/prepped_ligands/Nelfinavir

>  <Rbt.Executable>
rbdock/0.1.0

>  <Rbt.Library>
librxdock.so/0.1.0

>  <Rbt.Parameter_File>
/root/miniconda3/envs/rdock/share/rxdock-2013.1.1_148c5bd1-0/data/scripts/dock.prm

>  <Rbt.Receptor>
def.prm

>  <SCORE>
-15.6846

>  <SCORE.INTER>
-18.6876

>  <SCORE.INTER.CONST>
1

>  <SCORE.INTER.POLAR>
0

>  <SCORE.INTER.REPUL>
0

>  <SCORE.INTER.ROT>
10

>  <SCORE.INTER.VDW>
-34.0876

>  <SCORE.INTER.norm>
-0.46719

>  <SCORE.INTRA>
2.88945

>  <SCORE.INTRA.DIHEDRAL>
2.27984

>  <SCORE.INTRA.DIHEDRAL.0>
15.8713

>  <SCORE.INTRA.POLAR>
-0.121479

>  <SCORE.INTRA.POLAR.0>
0

>  <SCORE.INTRA.REPUL>
0

>  <SCORE.INTRA.REPUL.0>
0

>  <SCORE.INTRA.VDW>
2.16255

>  <SCORE.INTRA.VDW.0>
-0.89017

>  <SCORE.INTRA.norm>
0.0722362

>  <SCORE.RESTR>
0

>  <SCORE.RESTR.CAVITY>
0

>  <SCORE.RESTR.norm>
0

>  <SCORE.SYSTEM>
0.113548

>  <SCORE.SYSTEM.CONST>
0

>  <SCORE.SYSTEM.DIHEDRAL>
1.80496

>  <SCORE.SYSTEM.POLAR>
-0.0121093

>  <SCORE.SYSTEM.VDW>
-0.74776

>  <SCORE.SYSTEM.norm>
0.0028387

>  <SCORE.heavy>
40

>  <SCORE.norm>
-0.392116

$$$$
64143
  RxDock  02242109583D
librxdock.so/0.1.0
 44 47  0  0  0  0  0  0  0  0999 V2000
  -47.1401   -1.4204   16.0539 S   0  0  0  0  0  0
  -51.5845   -5.7566   18.2737 O   0  0  0  0  0  0
  -50.6457   -2.1110   12.8070 O   0  0  0  0  0  0
  -48.0872    1.1212   12.3282 O   0  0  0  0  0  0
  -49.8466    5.8733   11.3640 O   0  0  0  0  0  0
  -51.0779   -3.6419   15.6865 N   0  0  0  0  0  0
  -49.5065   -5.0038   17.5430 N   0  0  0  0  0  0
  -49.8240    0.3186   13.6378 N   0  0  0  0  0  0
  -53.8696   -4.3781   16.4759 C   0  0  0  0  0  0
  -53.4352   -4.2415   15.0052 C   0  0  0  0  0  0
  -52.9575   -3.5361   17.3855 C   0  0  0  0  0  0
  -51.9254   -4.5020   14.8467 C   0  0  0  0  0  0
  -53.9588   -5.8456   16.9285 C   0  0  0  0  0  0
  -54.2740   -5.1408   14.0821 C   0  0  0  0  0  0
  -51.4536   -3.6767   17.1052 C   0  0  0  0  0  0
  -54.8469   -6.6692   16.0005 C   0  0  0  0  0  0
  -54.3652   -6.5876   14.5570 C   0  0  0  0  0  0
  -51.0197   -2.2706   15.1795 C   0  0  0  0  0  0
  -50.8797   -4.9294   17.7017 C   0  0  0  0  0  0
  -49.9733   -2.1060   14.0684 C   0  0  0  0  0  0
  -49.1144   -0.8246   14.1725 C   0  0  0  0  0  0
  -48.7107   -6.0994   18.0478 C   0  0  0  0  0  0
  -48.6899   -0.5635   15.6262 C   0  0  0  0  0  0
  -49.0184   -7.3643   17.2384 C   0  0  0  0  0  0
  -47.2263   -5.7445   17.9113 C   0  0  0  0  0  0
  -49.0538   -6.3375   19.5228 C   0  0  0  0  0  0
  -49.2381    1.2039   12.7491 C   0  0  0  0  0  0
  -50.0901    2.3405   12.3143 C   0  0  0  0  0  0
  -47.0160   -1.0646   17.8020 C   0  0  0  0  0  0
  -49.5408    3.5932   12.0416 C   0  0  0  0  0  0
  -51.4636    2.1370   12.1799 C   0  0  0  0  0  0
  -45.8348   -0.5378   18.3243 C   0  0  0  0  0  0
  -48.1002   -1.3144   18.6432 C   0  0  0  0  0  0
  -50.3648    4.6424   11.6344 C   0  0  0  0  0  0
  -48.0691    3.8204   12.1828 C   0  0  0  0  0  0
  -52.2875    3.1863   11.7728 C   0  0  0  0  0  0
  -45.7378   -0.2606   19.6878 C   0  0  0  0  0  0
  -48.0031   -1.0371   20.0069 C   0  0  0  0  0  0
  -51.7382    4.4390   11.5002 C   0  0  0  0  0  0
  -46.8220   -0.5104   20.5292 C   0  0  0  0  0  0
  -49.0372   -4.3073   16.9724 H   0  0  0  0  0  0
  -50.2933   -2.8568   12.2921 H   0  0  0  0  0  0
  -50.7935    0.4539   13.9109 H   0  0  0  0  0  0
  -50.5753    6.5093   11.2612 H   0  0  0  0  0  0
  1 23  1  0  0  0
  1 29  1  0  0  0
  2 19  2  0  0  0
  3 20  1  0  0  0
  3 42  1  0  0  0
  4 27  2  0  0  0
  5 34  1  0  0  0
  5 44  1  0  0  0
  6 12  1  0  0  0
  6 15  1  0  0  0
  6 18  1  0  0  0
  7 19  1  0  0  0
  7 22  1  0  0  0
  7 41  1  0  0  0
  8 21  1  0  0  0
  8 27  1  0  0  0
  8 43  1  0  0  0
  9 10  1  0  0  0
  9 11  1  0  0  0
  9 13  1  0  0  0
 10 12  1  0  0  0
 10 14  1  0  0  0
 11 15  1  0  0  0
 13 16  1  0  0  0
 14 17  1  0  0  0
 15 19  1  0  0  0
 16 17  1  0  0  0
 18 20  1  0  0  0
 20 21  1  0  0  0
 21 23  1  0  0  0
 22 24  1  0  0  0
 22 25  1  0  0  0
 22 26  1  0  0  0
 27 28  1  0  0  0
 28 30  2  0  0  0
 28 31  1  0  0  0
 29 32  2  0  0  0
 29 33  1  0  0  0
 30 34  1  0  0  0
 30 35  1  0  0  0
 31 36  2  0  0  0
 32 37  1  0  0  0
 33 38  2  0  0  0
 34 39  2  0  0  0
 36 39  1  0  0  0
 37 40  2  0  0  0
 38 40  1  0  0  0
M  END
>  <CHROM.0>
80.09762931,-126.71382676,-70.69918767

>  <CHROM.1>
-174.47652260,-128.88302861,-120.04739104,-169.46473449,-83.38299621,69.62099683
-132.25786676,-123.94227954,100.74286892,40.76846890,-148.90583366,-32.54386785
-50.08557856,-1.80771479,15.51823621,-1.41941008,0.59414854,2.52750877

>  <Name>
64143

>  <PUBCHEM_ATOM_DEF_STEREO_COUNT>
5

>  <PUBCHEM_ATOM_UDEF_STEREO_COUNT>
0

>  <PUBCHEM_BOND_DEF_STEREO_COUNT>
0

>  <PUBCHEM_BOND_UDEF_STEREO_COUNT>
0

>  <PUBCHEM_CACTVS_TAUTO_COUNT>
12

>  <PUBCHEM_COMPONENT_COUNT>
1

>  <PUBCHEM_COMPOUND_CID>
64143

>  <PUBCHEM_CONFORMER_DIVERSEORDER>
1
21
84
153
101
123
82
146
125
17
85
73
20
32
151
113
8
57
53
6
52
117
108
155
94
19
118
148
88
54
130
70
105
150
142
135
56
2
77
61
92
106
139
116
7
51
96
80
93
34
132
115
24
147
122
121
67
36
124
66
145
141
112
44
110
58
104
11
79
149
50
143
60
10
46
100
74
55
129
25
30
131
114
97
47
102
111
140
134
81
16
28
109
144
152
48
86
45
126
39
87
65
29
4
95
156
35
133
27
62
78
49
75
98
99
68
15
63
90
69
107
3
103
64
41
59
76
22
9
136
12
157
33
26
23
119
89
38
71
31
138
154
14
43
127
120
72
128
18
37
42
40
137
83
5
91
13

>  <PUBCHEM_CONFORMER_ID>
0000FA8F00000001

>  <PUBCHEM_CONFORMER_RMSD>
1.4

>  <PUBCHEM_COORDINATE_TYPE>
2
5
10

>  <PUBCHEM_EFFECTIVE_ROTOR_COUNT>
13.6

>  <PUBCHEM_FEATURE_SELFOVERLAP>
66.023

>  <PUBCHEM_HEAVY_ATOM_COUNT>
40

>  <PUBCHEM_ISOTOPIC_ATOM_COUNT>
0

>  <PUBCHEM_MMFF94_ENERGY>
106.283

>  <PUBCHEM_MMFF94_PARTIAL_CHARGES>
42
1 -0.33
12 0.27
15 0.33
18 0.27
19 0.57
2 -0.57
20 0.28
21 0.3
22 0.3
23 0.23
27 0.54
28 0.09
29 0.1
3 -0.68
30 -0.14
31 -0.15
32 -0.15
33 -0.15
34 0.08
35 0.14
36 -0.15
37 -0.15
38 -0.15
39 -0.15
4 -0.57
40 -0.15
5 -0.53
59 0.37
6 -0.81
61 0.4
64 0.37
7 -0.73
74 0.15
75 0.15
76 0.15
8 -0.73
80 0.15
81 0.15
82 0.15
83 0.15
84 0.15
85 0.45

>  <PUBCHEM_PHARMACOPHORE_FEATURES>
13
1 2 acceptor
1 3 acceptor
1 3 donor
1 4 acceptor
1 5 donor
1 6 cation
1 7 donor
1 8 donor
4 22 24 25 26 hydrophobe
6 28 30 31 34 36 39 rings
6 29 32 33 37 38 40 rings
6 6 9 10 11 12 15 rings
6 9 10 13 14 16 17 rings

>  <PUBCHEM_SHAPE_FINGERPRINT>
10032420 55 18130495444200979297
10319688 77 17470141684274524266
10721379 63 18052271596134557976
11421498 54 18270101526886733871
11991303 11 17825385439061262902
13690498 29 17703225234654346413
13911987 19 18189607414530907799
15064981 113 18187641419363593252
15439362 3 18118695322292951744
19319366 153 18342181024936020931
19958102 18 18337956809306142254
20505436 4 17987259766991243505
22393880 68 17989485238265708768
23559900 14 17977103453547379345
340366 18 17766549158792973763
4409770 3 18048885387894744490
504843 32 17969224610910731106
563151 97 18410570691006883420
6058803 2 18127403450458884667
6691757 9 18267867358440949680

>  <PUBCHEM_SHAPE_MULTIPOLES>
788.61
15.86
8.74
2.82
9.48
18.24
1.5
-18.8
9.61
4.55
-3.03
-1.39
0.57
-6.09

>  <PUBCHEM_SHAPE_SELFOVERLAP>
1639.542

>  <PUBCHEM_SHAPE_VOLUME>
450.8

>  <RI>
-2.95603e+08

>  <Rbt.Current_Directory>
/root/miniconda3/envs/rdock/share/rxdock-2013.1.1_148c5bd1-0/data/ligands/prepped_ligands/Nelfinavir

>  <Rbt.Executable>
rbdock/0.1.0

>  <Rbt.Library>
librxdock.so/0.1.0

>  <Rbt.Parameter_File>
/root/miniconda3/envs/rdock/share/rxdock-2013.1.1_148c5bd1-0/data/scripts/dock.prm

>  <Rbt.Receptor>
def.prm

>  <SCORE>
15.5589

>  <SCORE.INTER>
4.61326

>  <SCORE.INTER.CONST>
1

>  <SCORE.INTER.POLAR>
-0.013145

>  <SCORE.INTER.REPUL>
0.200318

>  <SCORE.INTER.ROT>
10

>  <SCORE.INTER.VDW>
-11.7436

>  <SCORE.INTER.norm>
0.115331

>  <SCORE.INTRA>
6.63864

>  <SCORE.INTRA.DIHEDRAL>
9.51891

>  <SCORE.INTRA.DIHEDRAL.0>
15.8713

>  <SCORE.INTRA.POLAR>
0

>  <SCORE.INTRA.POLAR.0>
0

>  <SCORE.INTRA.REPUL>
0

>  <SCORE.INTRA.REPUL.0>
0

>  <SCORE.INTRA.VDW>
1.87918

>  <SCORE.INTRA.VDW.0>
-0.89017

>  <SCORE.INTRA.norm>
0.165966

>  <SCORE.RESTR>
1.1678

>  <SCORE.RESTR.CAVITY>
1.1678

>  <SCORE.RESTR.norm>
0.0291949

>  <SCORE.SYSTEM>
3.13916

>  <SCORE.SYSTEM.CONST>
0

>  <SCORE.SYSTEM.DIHEDRAL>
8.15912

>  <SCORE.SYSTEM.VDW>
-0.940399

>  <SCORE.SYSTEM.norm>
0.078479

>  <SCORE.heavy>
40

>  <SCORE.norm>
0.388971

$$$$
64143
  RxDock  02242109583D
librxdock.so/0.1.0
 44 47  0  0  0  0  0  0  0  0999 V2000
  -49.3115   -0.7339   15.9909 S   0  0  0  0  0  0
  -50.3384   -5.8952   15.4465 O   0  0  0  0  0  0
  -51.1007   -1.4698   19.4765 O   0  0  0  0  0  0
  -47.3427    0.5947   20.8284 O   0  0  0  0  0  0
  -42.4654   -1.4019   18.3848 O   0  0  0  0  0  0
  -49.9644   -4.1926   18.4890 N   0  0  0  0  0  0
  -51.8425   -4.7476   16.8027 N   0  0  0  0  0  0
  -47.6572   -0.8871   19.0732 N   0  0  0  0  0  0
  -47.9875   -6.3671   17.9215 C   0  0  0  0  0  0
  -48.4596   -6.0307   19.3479 C   0  0  0  0  0  0
  -48.1439   -5.1433   17.0017 C   0  0  0  0  0  0
  -49.8619   -5.3938   19.3317 C   0  0  0  0  0  0
  -48.6758   -7.6208   17.3549 C   0  0  0  0  0  0
  -48.3971   -7.2604   20.2689 C   0  0  0  0  0  0
  -49.4902   -4.4127   17.1172 C   0  0  0  0  0  0
  -48.5312   -8.8160   18.2923 C   0  0  0  0  0  0
  -49.0693   -8.4979   19.6821 C   0  0  0  0  0  0
  -49.3117   -3.0367   19.1043 C   0  0  0  0  0  0
  -50.5824   -5.1119   16.3604 C   0  0  0  0  0  0
  -49.9474   -1.7096   18.6668 C   0  0  0  0  0  0
  -49.0105   -0.4828   18.7548 C   0  0  0  0  0  0
  -53.0627   -5.2615   16.2236 C   0  0  0  0  0  0
  -49.0379    0.3251   17.4477 C   0  0  0  0  0  0
  -54.2609   -4.5162   16.8226 C   0  0  0  0  0  0
  -53.0253   -5.0492   14.7066 C   0  0  0  0  0  0
  -53.1806   -6.7578   16.5355 C   0  0  0  0  0  0
  -46.9321   -0.3033   20.0979 C   0  0  0  0  0  0
  -45.5481   -0.8115   20.2800 C   0  0  0  0  0  0
  -47.6313   -1.1491   15.5413 C   0  0  0  0  0  0
  -44.6502   -0.8625   19.2139 C   0  0  0  0  0  0
  -45.1524   -1.2422   21.5464 C   0  0  0  0  0  0
  -47.1500   -2.4401   15.7587 C   0  0  0  0  0  0
  -46.8018   -0.1819   14.9739 C   0  0  0  0  0  0
  -43.3565   -1.3440   19.4141 C   0  0  0  0  0  0
  -45.0660   -0.4026   17.8526 C   0  0  0  0  0  0
  -43.8586   -1.7238   21.7465 C   0  0  0  0  0  0
  -45.8393   -2.7640   15.4085 C   0  0  0  0  0  0
  -45.4910   -0.5059   14.6236 C   0  0  0  0  0  0
  -42.9607   -1.7749   20.6804 C   0  0  0  0  0  0
  -45.0097   -1.7968   14.8410 C   0  0  0  0  0  0
  -51.9256   -4.1610   17.6274 H   0  0  0  0  0  0
  -51.7212   -2.2029   19.3238 H   0  0  0  0  0  0
  -47.2422   -1.6438   18.5364 H   0  0  0  0  0  0
  -41.5878   -1.1356   18.7089 H   0  0  0  0  0  0
  1 23  1  0  0  0
  1 29  1  0  0  0
  2 19  2  0  0  0
  3 20  1  0  0  0
  3 42  1  0  0  0
  4 27  2  0  0  0
  5 34  1  0  0  0
  5 44  1  0  0  0
  6 12  1  0  0  0
  6 15  1  0  0  0
  6 18  1  0  0  0
  7 19  1  0  0  0
  7 22  1  0  0  0
  7 41  1  0  0  0
  8 21  1  0  0  0
  8 27  1  0  0  0
  8 43  1  0  0  0
  9 10  1  0  0  0
  9 11  1  0  0  0
  9 13  1  0  0  0
 10 12  1  0  0  0
 10 14  1  0  0  0
 11 15  1  0  0  0
 13 16  1  0  0  0
 14 17  1  0  0  0
 15 19  1  0  0  0
 16 17  1  0  0  0
 18 20  1  0  0  0
 20 21  1  0  0  0
 21 23  1  0  0  0
 22 24  1  0  0  0
 22 25  1  0  0  0
 22 26  1  0  0  0
 27 28  1  0  0  0
 28 30  2  0  0  0
 28 31  1  0  0  0
 29 32  2  0  0  0
 29 33  1  0  0  0
 30 34  1  0  0  0
 30 35  1  0  0  0
 31 36  2  0  0  0
 32 37  1  0  0  0
 33 38  2  0  0  0
 34 39  2  0  0  0
 36 39  1  0  0  0
 37 40  2  0  0  0
 38 40  1  0  0  0
M  END
>  <CHROM.0>
-3.14729839,176.70939325,-178.98428597

>  <CHROM.1>
-90.08952362,108.11672386,-61.05773872,140.11370279,-151.80945363,-172.61568759
-129.59568831,-149.06786358,82.83797203,129.38638901,91.43068796,-126.44497766
-48.24468896,-3.13066953,17.87336365,0.48271360,-0.53928272,-0.42541646

>  <Name>
64143

>  <PUBCHEM_ATOM_DEF_STEREO_COUNT>
5

>  <PUBCHEM_ATOM_UDEF_STEREO_COUNT>
0

>  <PUBCHEM_BOND_DEF_STEREO_COUNT>
0

>  <PUBCHEM_BOND_UDEF_STEREO_COUNT>
0

>  <PUBCHEM_CACTVS_TAUTO_COUNT>
12

>  <PUBCHEM_COMPONENT_COUNT>
1

>  <PUBCHEM_COMPOUND_CID>
64143

>  <PUBCHEM_CONFORMER_DIVERSEORDER>
1
21
84
153
101
123
82
146
125
17
85
73
20
32
151
113
8
57
53
6
52
117
108
155
94
19
118
148
88
54
130
70
105
150
142
135
56
2
77
61
92
106
139
116
7
51
96
80
93
34
132
115
24
147
122
121
67
36
124
66
145
141
112
44
110
58
104
11
79
149
50
143
60
10
46
100
74
55
129
25
30
131
114
97
47
102
111
140
134
81
16
28
109
144
152
48
86
45
126
39
87
65
29
4
95
156
35
133
27
62
78
49
75
98
99
68
15
63
90
69
107
3
103
64
41
59
76
22
9
136
12
157
33
26
23
119
89
38
71
31
138
154
14
43
127
120
72
128
18
37
42
40
137
83
5
91
13

>  <PUBCHEM_CONFORMER_ID>
0000FA8F00000001

>  <PUBCHEM_CONFORMER_RMSD>
1.4

>  <PUBCHEM_COORDINATE_TYPE>
2
5
10

>  <PUBCHEM_EFFECTIVE_ROTOR_COUNT>
13.6

>  <PUBCHEM_FEATURE_SELFOVERLAP>
66.023

>  <PUBCHEM_HEAVY_ATOM_COUNT>
40

>  <PUBCHEM_ISOTOPIC_ATOM_COUNT>
0

>  <PUBCHEM_MMFF94_ENERGY>
106.283

>  <PUBCHEM_MMFF94_PARTIAL_CHARGES>
42
1 -0.33
12 0.27
15 0.33
18 0.27
19 0.57
2 -0.57
20 0.28
21 0.3
22 0.3
23 0.23
27 0.54
28 0.09
29 0.1
3 -0.68
30 -0.14
31 -0.15
32 -0.15
33 -0.15
34 0.08
35 0.14
36 -0.15
37 -0.15
38 -0.15
39 -0.15
4 -0.57
40 -0.15
5 -0.53
59 0.37
6 -0.81
61 0.4
64 0.37
7 -0.73
74 0.15
75 0.15
76 0.15
8 -0.73
80 0.15
81 0.15
82 0.15
83 0.15
84 0.15
85 0.45

>  <PUBCHEM_PHARMACOPHORE_FEATURES>
13
1 2 acceptor
1 3 acceptor
1 3 donor
1 4 acceptor
1 5 donor
1 6 cation
1 7 donor
1 8 donor
4 22 24 25 26 hydrophobe
6 28 30 31 34 36 39 rings
6 29 32 33 37 38 40 rings
6 6 9 10 11 12 15 rings
6 9 10 13 14 16 17 rings

>  <PUBCHEM_SHAPE_FINGERPRINT>
10032420 55 18130495444200979297
10319688 77 17470141684274524266
10721379 63 18052271596134557976
11421498 54 18270101526886733871
11991303 11 17825385439061262902
13690498 29 17703225234654346413
13911987 19 18189607414530907799
15064981 113 18187641419363593252
15439362 3 18118695322292951744
19319366 153 18342181024936020931
19958102 18 18337956809306142254
20505436 4 17987259766991243505
22393880 68 17989485238265708768
23559900 14 17977103453547379345
340366 18 17766549158792973763
4409770 3 18048885387894744490
504843 32 17969224610910731106
563151 97 18410570691006883420
6058803 2 18127403450458884667
6691757 9 18267867358440949680

>  <PUBCHEM_SHAPE_MULTIPOLES>
788.61
15.86
8.74
2.82
9.48
18.24
1.5
-18.8
9.61
4.55
-3.03
-1.39
0.57
-6.09

>  <PUBCHEM_SHAPE_SELFOVERLAP>
1639.542

>  <PUBCHEM_SHAPE_VOLUME>
450.8

>  <RI>
-2.95603e+08

>  <Rbt.Current_Directory>
/root/miniconda3/envs/rdock/share/rxdock-2013.1.1_148c5bd1-0/data/ligands/prepped_ligands/Nelfinavir

>  <Rbt.Executable>
rbdock/0.1.0

>  <Rbt.Library>
librxdock.so/0.1.0

>  <Rbt.Parameter_File>
/root/miniconda3/envs/rdock/share/rxdock-2013.1.1_148c5bd1-0/data/scripts/dock.prm

>  <Rbt.Receptor>
def.prm

>  <SCORE>
-1.82305

>  <SCORE.INTER>
-7.24495

>  <SCORE.INTER.CONST>
1

>  <SCORE.INTER.POLAR>
0

>  <SCORE.INTER.REPUL>
0.0239181

>  <SCORE.INTER.ROT>
10

>  <SCORE.INTER.VDW>
-22.7645

>  <SCORE.INTER.norm>
-0.181124

>  <SCORE.INTRA>
4.07378

>  <SCORE.INTRA.DIHEDRAL>
11.5723

>  <SCORE.INTRA.DIHEDRAL.0>
15.8713

>  <SCORE.INTRA.POLAR>
-0.0814842

>  <SCORE.INTRA.POLAR.0>
0

>  <SCORE.INTRA.REPUL>
0.063928

>  <SCORE.INTRA.REPUL.0>
0

>  <SCORE.INTRA.VDW>
-1.75495

>  <SCORE.INTRA.VDW.0>
-0.89017

>  <SCORE.INTRA.norm>
0.101845

>  <SCORE.RESTR>
0

>  <SCORE.RESTR.CAVITY>
0

>  <SCORE.RESTR.norm>
0

>  <SCORE.SYSTEM>
1.34812

>  <SCORE.SYSTEM.CONST>
0

>  <SCORE.SYSTEM.DIHEDRAL>
3.62834

>  <SCORE.SYSTEM.POLAR>
-0.00444502

>  <SCORE.SYSTEM.VDW>
-0.450936

>  <SCORE.SYSTEM.norm>
0.0337031

>  <SCORE.heavy>
40

>  <SCORE.norm>
-0.0455762

$$$$
64143
  RxDock  02242109593D
librxdock.so/0.1.0
 44 47  0  0  0  0  0  0  0  0999 V2000
  -50.0108   -2.0660   14.3952 S   0  0  0  0  0  0
  -46.3562   -2.1939   18.3035 O   0  0  0  0  0  0
  -50.4209    1.0947   17.5194 O   0  0  0  0  0  0
  -48.5949   -3.5438   17.9268 O   0  0  0  0  0  0
  -50.0450   -8.5126   17.7276 O   0  0  0  0  0  0
  -48.4534   -0.8680   19.2691 N   0  0  0  0  0  0
  -46.1465   -0.7507   16.4892 N   0  0  0  0  0  0
  -50.6354   -2.5702   17.4128 N   0  0  0  0  0  0
  -46.2563    0.9388   20.1999 C   0  0  0  0  0  0
  -47.2205    0.2395   21.1755 C   0  0  0  0  0  0
  -46.9112    1.0933   18.8160 C   0  0  0  0  0  0
  -47.7828   -1.0577   20.5643 C   0  0  0  0  0  0
  -44.8860    0.2433   20.1281 C   0  0  0  0  0  0
  -46.5613   -0.0074   22.5425 C   0  0  0  0  0  0
  -47.6175   -0.1647   18.2884 C   0  0  0  0  0  0
  -44.2645    0.0770   21.5117 C   0  0  0  0  0  0
  -45.1960   -0.6816   22.4493 C   0  0  0  0  0  0
  -49.7600   -0.2269   19.4195 C   0  0  0  0  0  0
  -46.6510   -1.1588   17.7120 C   0  0  0  0  0  0
  -50.5504   -0.2034   18.1037 C   0  0  0  0  0  0
  -50.1142   -1.2644   17.0672 C   0  0  0  0  0  0
  -45.1806   -1.5182   15.7366 C   0  0  0  0  0  0
  -50.5577   -0.8649   15.6511 C   0  0  0  0  0  0
  -45.8350   -2.8146   15.2457 C   0  0  0  0  0  0
  -44.7072   -0.6897   14.5377 C   0  0  0  0  0  0
  -43.9874   -1.8548   16.6383 C   0  0  0  0  0  0
  -49.8165   -3.6103   17.8183 C   0  0  0  0  0  0
  -50.5024   -4.8950   18.1116 C   0  0  0  0  0  0
  -51.1078   -3.4391   14.7251 C   0  0  0  0  0  0
  -49.9257   -6.1176   17.7679 C   0  0  0  0  0  0
  -51.7457   -4.8633   18.7432 C   0  0  0  0  0  0
  -50.5918   -4.7285   14.8543 C   0  0  0  0  0  0
  -52.4795   -3.2208   14.8525 C   0  0  0  0  0  0
  -50.5922   -7.3086   18.0559 C   0  0  0  0  0  0
  -48.5927   -6.1610   17.0907 C   0  0  0  0  0  0
  -52.4122   -6.0544   19.0311 C   0  0  0  0  0  0
  -51.4475   -5.7997   15.1112 C   0  0  0  0  0  0
  -53.3352   -4.2921   15.1095 C   0  0  0  0  0  0
  -51.8356   -7.2770   18.6874 C   0  0  0  0  0  0
  -52.8192   -5.5814   15.2387 C   0  0  0  0  0  0
  -46.5298    0.0806   16.0497 H   0  0  0  0  0  0
  -49.4750    1.2454   17.3514 H   0  0  0  0  0  0
  -51.6412   -2.7116   17.3774 H   0  0  0  0  0  0
  -49.8677   -8.5309   16.7714 H   0  0  0  0  0  0
  1 23  1  0  0  0
  1 29  1  0  0  0
  2 19  2  0  0  0
  3 20  1  0  0  0
  3 42  1  0  0  0
  4 27  2  0  0  0
  5 34  1  0  0  0
  5 44  1  0  0  0
  6 12  1  0  0  0
  6 15  1  0  0  0
  6 18  1  0  0  0
  7 19  1  0  0  0
  7 22  1  0  0  0
  7 41  1  0  0  0
  8 21  1  0  0  0
  8 27  1  0  0  0
  8 43  1  0  0  0
  9 10  1  0  0  0
  9 11  1  0  0  0
  9 13  1  0  0  0
 10 12  1  0  0  0
 10 14  1  0  0  0
 11 15  1  0  0  0
 13 16  1  0  0  0
 14 17  1  0  0  0
 15 19  1  0  0  0
 16 17  1  0  0  0
 18 20  1  0  0  0
 20 21  1  0  0  0
 21 23  1  0  0  0
 22 24  1  0  0  0
 22 25  1  0  0  0
 22 26  1  0  0  0
 27 28  1  0  0  0
 28 30  2  0  0  0
 28 31  1  0  0  0
 29 32  2  0  0  0
 29 33  1  0  0  0
 30 34  1  0  0  0
 30 35  1  0  0  0
 31 36  2  0  0  0
 32 37  1  0  0  0
 33 38  2  0  0  0
 34 39  2  0  0  0
 36 39  1  0  0  0
 37 40  2  0  0  0
 38 40  1  0  0  0
M  END
>  <CHROM.0>
-64.29668531,-66.45051938,50.05858837

>  <CHROM.1>
72.96780749,-131.17386925,60.50007494,-57.02754811,-171.95230725,67.45812650
-111.95245426,-21.94065836,-100.15883408,-160.61094514,-58.41885765,-37.05853803
-48.76922396,-2.51112590,17.64935978,-2.98341830,0.83687140,1.89142218

>  <Name>
64143

>  <PUBCHEM_ATOM_DEF_STEREO_COUNT>
5

>  <PUBCHEM_ATOM_UDEF_STEREO_COUNT>
0

>  <PUBCHEM_BOND_DEF_STEREO_COUNT>
0

>  <PUBCHEM_BOND_UDEF_STEREO_COUNT>
0

>  <PUBCHEM_CACTVS_TAUTO_COUNT>
12

>  <PUBCHEM_COMPONENT_COUNT>
1

>  <PUBCHEM_COMPOUND_CID>
64143

>  <PUBCHEM_CONFORMER_DIVERSEORDER>
1
21
84
153
101
123
82
146
125
17
85
73
20
32
151
113
8
57
53
6
52
117
108
155
94
19
118
148
88
54
130
70
105
150
142
135
56
2
77
61
92
106
139
116
7
51
96
80
93
34
132
115
24
147
122
121
67
36
124
66
145
141
112
44
110
58
104
11
79
149
50
143
60
10
46
100
74
55
129
25
30
131
114
97
47
102
111
140
134
81
16
28
109
144
152
48
86
45
126
39
87
65
29
4
95
156
35
133
27
62
78
49
75
98
99
68
15
63
90
69
107
3
103
64
41
59
76
22
9
136
12
157
33
26
23
119
89
38
71
31
138
154
14
43
127
120
72
128
18
37
42
40
137
83
5
91
13

>  <PUBCHEM_CONFORMER_ID>
0000FA8F00000001

>  <PUBCHEM_CONFORMER_RMSD>
1.4

>  <PUBCHEM_COORDINATE_TYPE>
2
5
10

>  <PUBCHEM_EFFECTIVE_ROTOR_COUNT>
13.6

>  <PUBCHEM_FEATURE_SELFOVERLAP>
66.023

>  <PUBCHEM_HEAVY_ATOM_COUNT>
40

>  <PUBCHEM_ISOTOPIC_ATOM_COUNT>
0

>  <PUBCHEM_MMFF94_ENERGY>
106.283

>  <PUBCHEM_MMFF94_PARTIAL_CHARGES>
42
1 -0.33
12 0.27
15 0.33
18 0.27
19 0.57
2 -0.57
20 0.28
21 0.3
22 0.3
23 0.23
27 0.54
28 0.09
29 0.1
3 -0.68
30 -0.14
31 -0.15
32 -0.15
33 -0.15
34 0.08
35 0.14
36 -0.15
37 -0.15
38 -0.15
39 -0.15
4 -0.57
40 -0.15
5 -0.53
59 0.37
6 -0.81
61 0.4
64 0.37
7 -0.73
74 0.15
75 0.15
76 0.15
8 -0.73
80 0.15
81 0.15
82 0.15
83 0.15
84 0.15
85 0.45

>  <PUBCHEM_PHARMACOPHORE_FEATURES>
13
1 2 acceptor
1 3 acceptor
1 3 donor
1 4 acceptor
1 5 donor
1 6 cation
1 7 donor
1 8 donor
4 22 24 25 26 hydrophobe
6 28 30 31 34 36 39 rings
6 29 32 33 37 38 40 rings
6 6 9 10 11 12 15 rings
6 9 10 13 14 16 17 rings

>  <PUBCHEM_SHAPE_FINGERPRINT>
10032420 55 18130495444200979297
10319688 77 17470141684274524266
10721379 63 18052271596134557976
11421498 54 18270101526886733871
11991303 11 17825385439061262902
13690498 29 17703225234654346413
13911987 19 18189607414530907799
15064981 113 18187641419363593252
15439362 3 18118695322292951744
19319366 153 18342181024936020931
19958102 18 18337956809306142254
20505436 4 17987259766991243505
22393880 68 17989485238265708768
23559900 14 17977103453547379345
340366 18 17766549158792973763
4409770 3 18048885387894744490
504843 32 17969224610910731106
563151 97 18410570691006883420
6058803 2 18127403450458884667
6691757 9 18267867358440949680

>  <PUBCHEM_SHAPE_MULTIPOLES>
788.61
15.86
8.74
2.82
9.48
18.24
1.5
-18.8
9.61
4.55
-3.03
-1.39
0.57
-6.09

>  <PUBCHEM_SHAPE_SELFOVERLAP>
1639.542

>  <PUBCHEM_SHAPE_VOLUME>
450.8

>  <RI>
-2.95603e+08

>  <Rbt.Current_Directory>
/root/miniconda3/envs/rdock/share/rxdock-2013.1.1_148c5bd1-0/data/ligands/prepped_ligands/Nelfinavir

>  <Rbt.Executable>
rbdock/0.1.0

>  <Rbt.Library>
librxdock.so/0.1.0

>  <Rbt.Parameter_File>
/root/miniconda3/envs/rdock/share/rxdock-2013.1.1_148c5bd1-0/data/scripts/dock.prm

>  <Rbt.Receptor>
def.prm

>  <SCORE>
-15.9512

>  <SCORE.INTER>
-12.1611

>  <SCORE.INTER.CONST>
1

>  <SCORE.INTER.POLAR>
-1.15942

>  <SCORE.INTER.REPUL>
0

>  <SCORE.INTER.ROT>
10

>  <SCORE.INTER.VDW>
-23.6191

>  <SCORE.INTER.norm>
-0.304028

>  <SCORE.INTRA>
-2.92527

>  <SCORE.INTRA.DIHEDRAL>
3.29692

>  <SCORE.INTRA.DIHEDRAL.0>
15.8713

>  <SCORE.INTRA.POLAR>
0

>  <SCORE.INTRA.POLAR.0>
0

>  <SCORE.INTRA.REPUL>
0

>  <SCORE.INTRA.REPUL.0>
0

>  <SCORE.INTRA.VDW>
-4.57373

>  <SCORE.INTRA.VDW.0>
-0.89017

>  <SCORE.INTRA.norm>
-0.0731317

>  <SCORE.RESTR>
0

>  <SCORE.RESTR.CAVITY>
0

>  <SCORE.RESTR.norm>
0

>  <SCORE.SYSTEM>
-0.864782

>  <SCORE.SYSTEM.CONST>
0

>  <SCORE.SYSTEM.DIHEDRAL>
0.49823

>  <SCORE.SYSTEM.VDW>
-1.1139

>  <SCORE.SYSTEM.norm>
-0.0216195

>  <SCORE.heavy>
40

>  <SCORE.norm>
-0.398779

$$$$
64143
  RxDock  02242109593D
librxdock.so/0.1.0
 44 47  0  0  0  0  0  0  0  0999 V2000
  -49.9411   -0.8008   13.8243 S   0  0  0  0  0  0
  -52.6230   -4.7510   17.1616 O   0  0  0  0  0  0
  -49.3342   -3.5133   14.4276 O   0  0  0  0  0  0
  -46.1433   -1.2416   16.4071 O   0  0  0  0  0  0
  -43.0898   -1.6443   20.5500 O   0  0  0  0  0  0
  -49.9777   -4.6528   17.0169 N   0  0  0  0  0  0
  -52.7875   -6.3309   15.4600 N   0  0  0  0  0  0
  -48.1979   -1.6365   17.4063 N   0  0  0  0  0  0
  -50.2301   -7.2794   18.4296 C   0  0  0  0  0  0
  -49.4848   -6.0795   19.0423 C   0  0  0  0  0  0
  -50.2522   -7.1708   16.8947 C   0  0  0  0  0  0
  -50.0233   -4.7489   18.4838 C   0  0  0  0  0  0
  -51.6356   -7.4655   19.0267 C   0  0  0  0  0  0
  -49.5223   -6.1155   20.5790 C   0  0  0  0  0  0
  -50.6290   -5.7856   16.3478 C   0  0  0  0  0  0
  -51.5954   -7.5459   20.5499 C   0  0  0  0  0  0
  -50.9218   -6.3184   21.1514 C   0  0  0  0  0  0
  -48.6147   -4.4497   16.5251 C   0  0  0  0  0  0
  -52.1111   -5.5469   16.3788 C   0  0  0  0  0  0
  -48.5144   -3.2526   15.5693 C   0  0  0  0  0  0
  -48.9298   -1.8963   16.1843 C   0  0  0  0  0  0
  -54.2241   -6.3069   15.3060 C   0  0  0  0  0  0
  -48.7252   -0.7512   15.1800 C   0  0  0  0  0  0
  -54.5913   -6.7932   13.8994 C   0  0  0  0  0  0
  -54.8557   -7.2283   16.3549 C   0  0  0  0  0  0
  -54.7309   -4.8734   15.5022 C   0  0  0  0  0  0
  -46.8484   -1.3273   17.4092 C   0  0  0  0  0  0
  -46.2379   -1.1145   18.7466 C   0  0  0  0  0  0
  -49.4037    0.5802   12.8233 C   0  0  0  0  0  0
  -44.9215   -1.4931   19.0093 C   0  0  0  0  0  0
  -47.0069   -0.5236   19.7492 C   0  0  0  0  0  0
  -50.2451    1.6773   12.6394 C   0  0  0  0  0  0
  -48.1434    0.5599   12.2261 C   0  0  0  0  0  0
  -44.3738   -1.2808   20.2744 C   0  0  0  0  0  0
  -44.0895   -2.1273   17.9400 C   0  0  0  0  0  0
  -46.4592   -0.3113   21.0145 C   0  0  0  0  0  0
  -49.8262    2.7543   11.8584 C   0  0  0  0  0  0
  -47.7245    1.6371   11.4450 C   0  0  0  0  0  0
  -45.1428   -0.6900   21.2771 C   0  0  0  0  0  0
  -48.5659    2.7342   11.2611 C   0  0  0  0  0  0
  -52.2543   -6.8876   14.7989 H   0  0  0  0  0  0
  -48.9032   -4.2179   13.9144 H   0  0  0  0  0  0
  -48.7064   -1.6598   18.2859 H   0  0  0  0  0  0
  -42.5342   -0.8467   20.5851 H   0  0  0  0  0  0
  1 23  1  0  0  0
  1 29  1  0  0  0
  2 19  2  0  0  0
  3 20  1  0  0  0
  3 42  1  0  0  0
  4 27  2  0  0  0
  5 34  1  0  0  0
  5 44  1  0  0  0
  6 12  1  0  0  0
  6 15  1  0  0  0
  6 18  1  0  0  0
  7 19  1  0  0  0
  7 22  1  0  0  0
  7 41  1  0  0  0
  8 21  1  0  0  0
  8 27  1  0  0  0
  8 43  1  0  0  0
  9 10  1  0  0  0
  9 11  1  0  0  0
  9 13  1  0  0  0
 10 12  1  0  0  0
 10 14  1  0  0  0
 11 15  1  0  0  0
 13 16  1  0  0  0
 14 17  1  0  0  0
 15 19  1  0  0  0
 16 17  1  0  0  0
 18 20  1  0  0  0
 20 21  1  0  0  0
 21 23  1  0  0  0
 22 24  1  0  0  0
 22 25  1  0  0  0
 22 26  1  0  0  0
 27 28  1  0  0  0
 28 30  2  0  0  0
 28 31  1  0  0  0
 29 32  2  0  0  0
 29 33  1  0  0  0
 30 34  1  0  0  0
 30 35  1  0  0  0
 31 36  2  0  0  0
 32 37  1  0  0  0
 33 38  2  0  0  0
 34 39  2  0  0  0
 36 39  1  0  0  0
 37 40  2  0  0  0
 38 40  1  0  0  0
M  END
>  <CHROM.0>
-53.90792451,60.78215240,-178.10885095

>  <CHROM.1>
-177.79248377,-116.71618675,-70.46347684,105.31453918,-128.34470649,156.56740232
71.06403943,-18.48958791,-62.05310693,175.52067899,-165.07623155,-33.43060375
-49.32028606,-3.07867700,16.69998074,0.66896715,-0.64227916,-0.85501473

>  <Name>
64143

>  <PUBCHEM_ATOM_DEF_STEREO_COUNT>
5

>  <PUBCHEM_ATOM_UDEF_STEREO_COUNT>
0

>  <PUBCHEM_BOND_DEF_STEREO_COUNT>
0

>  <PUBCHEM_BOND_UDEF_STEREO_COUNT>
0

>  <PUBCHEM_CACTVS_TAUTO_COUNT>
12

>  <PUBCHEM_COMPONENT_COUNT>
1

>  <PUBCHEM_COMPOUND_CID>
64143

>  <PUBCHEM_CONFORMER_DIVERSEORDER>
1
21
84
153
101
123
82
146
125
17
85
73
20
32
151
113
8
57
53
6
52
117
108
155
94
19
118
148
88
54
130
70
105
150
142
135
56
2
77
61
92
106
139
116
7
51
96
80
93
34
132
115
24
147
122
121
67
36
124
66
145
141
112
44
110
58
104
11
79
149
50
143
60
10
46
100
74
55
129
25
30
131
114
97
47
102
111
140
134
81
16
28
109
144
152
48
86
45
126
39
87
65
29
4
95
156
35
133
27
62
78
49
75
98
99
68
15
63
90
69
107
3
103
64
41
59
76
22
9
136
12
157
33
26
23
119
89
38
71
31
138
154
14
43
127
120
72
128
18
37
42
40
137
83
5
91
13

>  <PUBCHEM_CONFORMER_ID>
0000FA8F00000001

>  <PUBCHEM_CONFORMER_RMSD>
1.4

>  <PUBCHEM_COORDINATE_TYPE>
2
5
10

>  <PUBCHEM_EFFECTIVE_ROTOR_COUNT>
13.6

>  <PUBCHEM_FEATURE_SELFOVERLAP>
66.023

>  <PUBCHEM_HEAVY_ATOM_COUNT>
40

>  <PUBCHEM_ISOTOPIC_ATOM_COUNT>
0

>  <PUBCHEM_MMFF94_ENERGY>
106.283

>  <PUBCHEM_MMFF94_PARTIAL_CHARGES>
42
1 -0.33
12 0.27
15 0.33
18 0.27
19 0.57
2 -0.57
20 0.28
21 0.3
22 0.3
23 0.23
27 0.54
28 0.09
29 0.1
3 -0.68
30 -0.14
31 -0.15
32 -0.15
33 -0.15
34 0.08
35 0.14
36 -0.15
37 -0.15
38 -0.15
39 -0.15
4 -0.57
40 -0.15
5 -0.53
59 0.37
6 -0.81
61 0.4
64 0.37
7 -0.73
74 0.15
75 0.15
76 0.15
8 -0.73
80 0.15
81 0.15
82 0.15
83 0.15
84 0.15
85 0.45

>  <PUBCHEM_PHARMACOPHORE_FEATURES>
13
1 2 acceptor
1 3 acceptor
1 3 donor
1 4 acceptor
1 5 donor
1 6 cation
1 7 donor
1 8 donor
4 22 24 25 26 hydrophobe
6 28 30 31 34 36 39 rings
6 29 32 33 37 38 40 rings
6 6 9 10 11 12 15 rings
6 9 10 13 14 16 17 rings

>  <PUBCHEM_SHAPE_FINGERPRINT>
10032420 55 18130495444200979297
10319688 77 17470141684274524266
10721379 63 18052271596134557976
11421498 54 18270101526886733871
11991303 11 17825385439061262902
13690498 29 17703225234654346413
13911987 19 18189607414530907799
15064981 113 18187641419363593252
15439362 3 18118695322292951744
19319366 153 18342181024936020931
19958102 18 18337956809306142254
20505436 4 17987259766991243505
22393880 68 17989485238265708768
23559900 14 17977103453547379345
340366 18 17766549158792973763
4409770 3 18048885387894744490
504843 32 17969224610910731106
563151 97 18410570691006883420
6058803 2 18127403450458884667
6691757 9 18267867358440949680

>  <PUBCHEM_SHAPE_MULTIPOLES>
788.61
15.86
8.74
2.82
9.48
18.24
1.5
-18.8
9.61
4.55
-3.03
-1.39
0.57
-6.09

>  <PUBCHEM_SHAPE_SELFOVERLAP>
1639.542

>  <PUBCHEM_SHAPE_VOLUME>
450.8

>  <RI>
-2.95603e+08

>  <Rbt.Current_Directory>
/root/miniconda3/envs/rdock/share/rxdock-2013.1.1_148c5bd1-0/data/ligands/prepped_ligands/Nelfinavir

>  <Rbt.Executable>
rbdock/0.1.0

>  <Rbt.Library>
librxdock.so/0.1.0

>  <Rbt.Parameter_File>
/root/miniconda3/envs/rdock/share/rxdock-2013.1.1_148c5bd1-0/data/scripts/dock.prm

>  <Rbt.Receptor>
def.prm

>  <SCORE>
-17.3012

>  <SCORE.INTER>
-19.0167

>  <SCORE.INTER.CONST>
1

>  <SCORE.INTER.POLAR>
-0.913803

>  <SCORE.INTER.REPUL>
0.000231202

>  <SCORE.INTER.ROT>
10

>  <SCORE.INTER.VDW>
-31.3109

>  <SCORE.INTER.norm>
-0.475418

>  <SCORE.INTRA>
2.68655

>  <SCORE.INTRA.DIHEDRAL>
1.78634

>  <SCORE.INTRA.DIHEDRAL.0>
15.8713

>  <SCORE.INTRA.POLAR>
0

>  <SCORE.INTRA.POLAR.0>
0

>  <SCORE.INTRA.REPUL>
0

>  <SCORE.INTRA.REPUL.0>
0

>  <SCORE.INTRA.VDW>
1.79338

>  <SCORE.INTRA.VDW.0>
-0.89017

>  <SCORE.INTRA.norm>
0.0671637

>  <SCORE.RESTR>
0

>  <SCORE.RESTR.CAVITY>
0

>  <SCORE.RESTR.norm>
0

>  <SCORE.SYSTEM>
-0.971084

>  <SCORE.SYSTEM.CONST>
0

>  <SCORE.SYSTEM.DIHEDRAL>
0.0968647

>  <SCORE.SYSTEM.POLAR>
-0.00639943

>  <SCORE.SYSTEM.VDW>
-0.997758

>  <SCORE.SYSTEM.norm>
-0.0242771

>  <SCORE.heavy>
40

>  <SCORE.norm>
-0.432531

$$$$
