Ritonavir.pdb
  RxDock  02242101353D
librxdock.so/0.1.0
 54 57  0  0  0  0  0  0  0  0999 V2000
  -42.8811   -0.8425   21.9959 S   0  0  0  0  0  0
  -50.8183   -2.7554   20.6632 S   0  0  0  0  0  0
  -52.3411   -2.3112   17.1391 O   0  0  0  0  0  0
  -49.8107    0.5967   15.7582 O   0  0  0  0  0  0
  -53.2762   -5.1761   19.9735 O   0  0  0  0  0  0
  -51.9479   -6.0252   18.3699 O   0  0  0  0  0  0
  -47.1042   -1.9867   18.5907 O   0  0  0  0  0  0
  -50.2884   -1.5895   16.1744 N   0  0  0  0  0  0
  -53.5526   -4.4847   17.8282 N   0  0  0  0  0  0
  -47.7352   -0.0071   17.7257 N   0  0  0  0  0  0
  -45.4867   -0.5515   17.9428 N   0  0  0  0  0  0
  -42.9551    0.1063   19.6009 N   0  0  0  0  0  0
  -48.9315   -4.1503   19.6043 N   0  0  0  0  0  0
  -50.8717   -1.8080   14.8413 C   0  0  0  0  0  0
  -51.7118   -3.1007   14.9043 C   0  0  0  0  0  0
  -52.8060   -3.0409   15.9913 C   0  0  0  0  0  0
  -53.2064   -4.4728   16.3988 C   0  0  0  0  0  0
  -49.7857   -1.9126   13.7477 C   0  0  0  0  0  0
  -54.4114   -4.9589   15.5650 C   0  0  0  0  0  0
  -49.1572   -0.3524   17.8699 C   0  0  0  0  0  0
  -49.8971    0.6437   18.7889 C   0  0  0  0  0  0
  -49.7862   -0.3839   16.4912 C   0  0  0  0  0  0
  -48.3538   -1.8057   14.2534 C   0  0  0  0  0  0
  -54.6114   -6.4674   15.5449 C   0  0  0  0  0  0
  -49.1542    0.7798   20.1281 C   0  0  0  0  0  0
  -49.9610    2.0385   18.1427 C   0  0  0  0  0  0
  -47.6416   -0.6391   14.0752 C   0  0  0  0  0  0
  -47.7589   -2.8722   14.8907 C   0  0  0  0  0  0
  -52.8679   -5.2719   18.6827 C   0  0  0  0  0  0
  -55.5357   -7.0331   14.6941 C   0  0  0  0  0  0
  -53.8719   -7.2793   16.3786 C   0  0  0  0  0  0
  -46.7886   -0.8925   18.1091 C   0  0  0  0  0  0
  -46.3469   -0.5396   14.5289 C   0  0  0  0  0  0
  -46.4639   -2.7746   15.3470 C   0  0  0  0  0  0
  -55.7193   -8.3968   14.6754 C   0  0  0  0  0  0
  -54.0536   -8.6429   16.3611 C   0  0  0  0  0  0
  -45.7567   -1.6076   15.1664 C   0  0  0  0  0  0
  -54.9777   -9.2022   15.5085 C   0  0  0  0  0  0
  -44.4389   -1.5073   18.3379 C   0  0  0  0  0  0
  -45.0746    0.7492   17.3798 C   0  0  0  0  0  0
  -52.2520   -5.2561   20.9801 C   0  0  0  0  0  0
  -43.7366   -1.0417   19.5979 C   0  0  0  0  0  0
  -51.0169   -4.5121   20.5143 C   0  0  0  0  0  0
  -42.4349    0.3630   20.7688 C   0  0  0  0  0  0
  -43.8239   -1.6778   20.7494 C   0  0  0  0  0  0
  -41.5422    1.5560   21.0385 C   0  0  0  0  0  0
  -41.1742    2.3029   19.7480 C   0  0  0  0  0  0
  -40.2455    1.1354   21.7441 C   0  0  0  0  0  0
  -49.9455   -5.0346   19.9489 C   0  0  0  0  0  0
  -49.2192   -2.9164   19.9074 C   0  0  0  0  0  0
  -52.4523   -1.3200   17.0121 H   0  0  0  0  0  0
  -50.2695   -2.2536   16.7524 H   0  0  0  0  0  0
  -54.2053   -3.9686   18.1198 H   0  0  0  0  0  0
  -47.5127    0.7638   17.3709 H   0  0  0  0  0  0
  1 44  1  0  0  0
  1 45  1  0  0  0
  2 43  1  0  0  0
  2 50  1  0  0  0
  3 16  1  0  0  0
  3 51  1  0  0  0
  4 22  2  0  0  0
  5 29  1  0  0  0
  5 41  1  0  0  0
  6 29  2  0  0  0
  7 32  2  0  0  0
  8 14  1  0  0  0
  8 22  1  0  0  0
  8 52  1  0  0  0
  9 17  1  0  0  0
  9 29  1  0  0  0
  9 53  1  0  0  0
 10 20  1  0  0  0
 10 32  1  0  0  0
 10 54  1  0  0  0
 11 32  1  0  0  0
 11 39  1  0  0  0
 11 40  1  0  0  0
 12 42  1  0  0  0
 12 44  2  0  0  0
 13 49  1  0  0  0
 13 50  2  0  0  0
 14 15  1  0  0  0
 14 18  1  0  0  0
 15 16  1  0  0  0
 16 17  1  0  0  0
 17 19  1  0  0  0
 18 23  1  0  0  0
 19 24  1  0  0  0
 20 21  1  0  0  0
 20 22  1  0  0  0
 21 25  1  0  0  0
 21 26  1  0  0  0
 23 27  2  0  0  0
 23 28  1  0  0  0
 24 30  2  0  0  0
 24 31  1  0  0  0
 27 33  1  0  0  0
 28 34  2  0  0  0
 30 35  1  0  0  0
 31 36  2  0  0  0
 33 37  2  0  0  0
 34 37  1  0  0  0
 35 38  2  0  0  0
 36 38  1  0  0  0
 39 42  1  0  0  0
 41 43  1  0  0  0
 42 45  2  0  0  0
 43 49  2  0  0  0
 44 46  1  0  0  0
 46 47  1  0  0  0
 46 48  1  0  0  0
M  END
>  <CHROM.0>
-177.81083023,-175.05002998,36.01290061

>  <CHROM.1>
83.36373402,36.63005143,38.99191785,-163.84498726,-120.44521351,120.19985190
-107.66409423,57.07093399,1.38502852,-35.53605148,24.46429004,-78.57579988
-103.70185517,-171.13501490,-52.58071951,-60.24108527,-66.60785267,82.45986824
171.82005032,-48.95400918,-2.41401963,17.87956230,0.04805233,0.59345810,1.97281715

>  <HEADER>
                                                                          

>  <MASTER>
        0    0    0    0    0    0    0    0   98    0   98    0          

>  <Name>
Ritonavir.pdb

>  <RI>
-7.06522e+08

>  <Rbt.Current_Directory>
/root/miniconda3/envs/rdock/share/rxdock-2013.1.1_148c5bd1-0/data/ligands/prepped_ligands/Ritonavir

>  <Rbt.Executable>
rbdock/0.1.0

>  <Rbt.Library>
librxdock.so/0.1.0

>  <Rbt.Parameter_File>
/root/miniconda3/envs/rdock/share/rxdock-2013.1.1_148c5bd1-0/data/scripts/dock.prm

>  <Rbt.Receptor>
def.prm

>  <SCORE>
-6.12363

>  <SCORE.INTER>
-7.5272

>  <SCORE.INTER.CONST>
1

>  <SCORE.INTER.POLAR>
-1.10659

>  <SCORE.INTER.REPUL>
0.0161398

>  <SCORE.INTER.ROT>
18

>  <SCORE.INTER.VDW>
-27.2455

>  <SCORE.INTER.norm>
-0.150544

>  <SCORE.INTRA>
-0.192154

>  <SCORE.INTRA.DIHEDRAL>
6.88987

>  <SCORE.INTRA.DIHEDRAL.0>
28.8748

>  <SCORE.INTRA.POLAR>
0

>  <SCORE.INTRA.POLAR.0>
0

>  <SCORE.INTRA.REPUL>
0.0145566

>  <SCORE.INTRA.REPUL.0>
0

>  <SCORE.INTRA.VDW>
-3.70987

>  <SCORE.INTRA.VDW.0>
-1.74536

>  <SCORE.INTRA.norm>
-0.00384308

>  <SCORE.RESTR>
1.8865

>  <SCORE.RESTR.CAVITY>
1.8865

>  <SCORE.RESTR.norm>
0.0377299

>  <SCORE.SYSTEM>
-0.290772

>  <SCORE.SYSTEM.CONST>
0

>  <SCORE.SYSTEM.DIHEDRAL>
1.38798

>  <SCORE.SYSTEM.VDW>
-0.984763

>  <SCORE.SYSTEM.norm>
-0.00581543

>  <SCORE.heavy>
50

>  <SCORE.norm>
-0.122473

>  <TITLE>
    Ritonavir_D                                                           

$$$$
Ritonavir.pdb
  RxDock  02242101353D
librxdock.so/0.1.0
 54 57  0  0  0  0  0  0  0  0999 V2000
  -43.2959   -0.3652   21.6719 S   0  0  0  0  0  0
  -56.6977   -6.8273   15.6152 S   0  0  0  0  0  0
  -47.7423   -5.2951   17.1926 O   0  0  0  0  0  0
  -49.4972    0.3016   16.0212 O   0  0  0  0  0  0
  -53.0769   -6.0283   16.6183 O   0  0  0  0  0  0
  -52.7160   -4.7585   18.4387 O   0  0  0  0  0  0
  -48.7994    0.0370   20.7193 O   0  0  0  0  0  0
  -49.6902   -1.7401   17.0085 N   0  0  0  0  0  0
  -50.9474   -5.7108   17.3402 N   0  0  0  0  0  0
  -49.0556    1.1171   18.7615 N   0  0  0  0  0  0
  -47.4678    1.8129   20.3086 N   0  0  0  0  0  0
  -44.5729    1.4759   20.3988 N   0  0  0  0  0  0
  -55.6306   -7.1044   13.2889 N   0  0  0  0  0  0
  -49.2692   -2.4638   15.7984 C   0  0  0  0  0  0
  -49.4689   -3.9711   16.0614 C   0  0  0  0  0  0
  -48.8625   -4.4205   17.4077 C   0  0  0  0  0  0
  -49.9412   -5.1355   18.2456 C   0  0  0  0  0  0
  -47.8001   -2.1615   15.4287 C   0  0  0  0  0  0
  -49.3109   -6.2530   19.1045 C   0  0  0  0  0  0
  -50.1167    0.1891   18.3431 C   0  0  0  0  0  0
  -51.4918    0.8877   18.2717 C   0  0  0  0  0  0
  -49.7390   -0.3972   16.9972 C   0  0  0  0  0  0
  -47.0234   -1.3766   16.4765 C   0  0  0  0  0  0
  -50.3001   -7.0643   19.9287 C   0  0  0  0  0  0
  -52.5603    0.0240   18.9618 C   0  0  0  0  0  0
  -51.4510    2.2479   18.9896 C   0  0  0  0  0  0
  -46.7210   -1.9540   17.6911 C   0  0  0  0  0  0
  -46.6182   -0.0852   16.2205 C   0  0  0  0  0  0
  -52.2566   -5.4508   17.5325 C   0  0  0  0  0  0
  -50.0267   -8.3770   20.2451 C   0  0  0  0  0  0
  -51.4778   -6.4937   20.3631 C   0  0  0  0  0  0
  -48.4572    0.9528   19.9624 C   0  0  0  0  0  0
  -46.0211   -1.2470   18.6410 C   0  0  0  0  0  0
  -45.9165    0.6238   17.1689 C   0  0  0  0  0  0
  -50.9204   -9.1129   20.9890 C   0  0  0  0  0  0
  -52.3723   -7.2275   21.1073 C   0  0  0  0  0  0
  -45.6172    0.0431   18.3805 C   0  0  0  0  0  0
  -52.0933   -8.5381   21.4210 C   0  0  0  0  0  0
  -46.7906    1.6427   21.6048 C   0  0  0  0  0  0
  -47.0406    2.9222   19.4336 C   0  0  0  0  0  0
  -54.3124   -5.3463   16.3406 C   0  0  0  0  0  0
  -45.4133    1.0390   21.4145 C   0  0  0  0  0  0
  -55.1015   -6.1186   15.3029 C   0  0  0  0  0  0
  -43.4259    0.8555   20.3871 C   0  0  0  0  0  0
  -44.9307    0.0853   22.1863 C   0  0  0  0  0  0
  -42.3333    1.1447   19.3794 C   0  0  0  0  0  0
  -40.9338    1.0497   20.0046 C   0  0  0  0  0  0
  -42.4973    2.5408   18.7627 C   0  0  0  0  0  0
  -54.7371   -6.3731   14.0607 C   0  0  0  0  0  0
  -56.7108   -7.4250   13.9428 C   0  0  0  0  0  0
  -46.9353   -4.7851   16.8771 H   0  0  0  0  0  0
  -49.9026   -2.1946   17.7323 H   0  0  0  0  0  0
  -50.6856   -6.2196   16.6693 H   0  0  0  0  0  0
  -48.8042    1.7579   18.2176 H   0  0  0  0  0  0
  1 44  1  0  0  0
  1 45  1  0  0  0
  2 43  1  0  0  0
  2 50  1  0  0  0
  3 16  1  0  0  0
  3 51  1  0  0  0
  4 22  2  0  0  0
  5 29  1  0  0  0
  5 41  1  0  0  0
  6 29  2  0  0  0
  7 32  2  0  0  0
  8 14  1  0  0  0
  8 22  1  0  0  0
  8 52  1  0  0  0
  9 17  1  0  0  0
  9 29  1  0  0  0
  9 53  1  0  0  0
 10 20  1  0  0  0
 10 32  1  0  0  0
 10 54  1  0  0  0
 11 32  1  0  0  0
 11 39  1  0  0  0
 11 40  1  0  0  0
 12 42  1  0  0  0
 12 44  2  0  0  0
 13 49  1  0  0  0
 13 50  2  0  0  0
 14 15  1  0  0  0
 14 18  1  0  0  0
 15 16  1  0  0  0
 16 17  1  0  0  0
 17 19  1  0  0  0
 18 23  1  0  0  0
 19 24  1  0  0  0
 20 21  1  0  0  0
 20 22  1  0  0  0
 21 25  1  0  0  0
 21 26  1  0  0  0
 23 27  2  0  0  0
 23 28  1  0  0  0
 24 30  2  0  0  0
 24 31  1  0  0  0
 27 33  1  0  0  0
 28 34  2  0  0  0
 30 35  1  0  0  0
 31 36  2  0  0  0
 33 37  2  0  0  0
 34 37  1  0  0  0
 35 38  2  0  0  0
 36 38  1  0  0  0
 39 42  1  0  0  0
 41 43  1  0  0  0
 42 45  2  0  0  0
 43 49  2  0  0  0
 44 46  1  0  0  0
 46 47  1  0  0  0
 46 48  1  0  0  0
M  END
>  <CHROM.0>
79.91725822,67.55224388,67.20880427

>  <CHROM.1>
74.39507829,28.79941612,179.86544809,-173.57236895,-128.04005155,112.34901803
104.61602705,-49.00587191,9.21252825,-112.66368583,-95.87824406,-57.16216464
67.81967477,151.13398979,-133.54232627,-56.16893418,43.15419355,117.54853289
-37.04779509,-49.22776560,-2.49446265,18.32252700,-0.50324264,0.56282067
2.76872631

>  <HEADER>
                                                                          

>  <MASTER>
        0    0    0    0    0    0    0    0   98    0   98    0          

>  <Name>
Ritonavir.pdb

>  <RI>
-7.06522e+08

>  <Rbt.Current_Directory>
/root/miniconda3/envs/rdock/share/rxdock-2013.1.1_148c5bd1-0/data/ligands/prepped_ligands/Ritonavir

>  <Rbt.Executable>
rbdock/0.1.0

>  <Rbt.Library>
librxdock.so/0.1.0

>  <Rbt.Parameter_File>
/root/miniconda3/envs/rdock/share/rxdock-2013.1.1_148c5bd1-0/data/scripts/dock.prm

>  <Rbt.Receptor>
def.prm

>  <SCORE>
2.15126

>  <SCORE.INTER>
0.0146577

>  <SCORE.INTER.CONST>
1

>  <SCORE.INTER.POLAR>
0

>  <SCORE.INTER.REPUL>
0.879001

>  <SCORE.INTER.ROT>
18

>  <SCORE.INTER.VDW>
-27.7803

>  <SCORE.INTER.norm>
0.000293154

>  <SCORE.INTRA>
1.86266

>  <SCORE.INTRA.DIHEDRAL>
8.93706

>  <SCORE.INTRA.DIHEDRAL.0>
28.8748

>  <SCORE.INTRA.POLAR>
0

>  <SCORE.INTRA.POLAR.0>
0

>  <SCORE.INTRA.REPUL>
0

>  <SCORE.INTRA.REPUL.0>
0

>  <SCORE.INTRA.VDW>
-2.60587

>  <SCORE.INTRA.VDW.0>
-1.74536

>  <SCORE.INTRA.norm>
0.0372532

>  <SCORE.RESTR>
0.526351

>  <SCORE.RESTR.CAVITY>
0.526351

>  <SCORE.RESTR.norm>
0.010527

>  <SCORE.SYSTEM>
-0.252407

>  <SCORE.SYSTEM.CONST>
0

>  <SCORE.SYSTEM.DIHEDRAL>
1.27999

>  <SCORE.SYSTEM.POLAR>
-0.0140121

>  <SCORE.SYSTEM.VDW>
-0.844762

>  <SCORE.SYSTEM.norm>
-0.00504814

>  <SCORE.heavy>
50

>  <SCORE.norm>
0.0430252

>  <TITLE>
    Ritonavir_D                                                           

$$$$
Ritonavir.pdb
  RxDock  02242101353D
librxdock.so/0.1.0
 54 57  0  0  0  0  0  0  0  0999 V2000
  -44.5682    1.8779   22.7657 S   0  0  0  0  0  0
  -54.9883   -5.8064   14.8449 S   0  0  0  0  0  0
  -50.6593    0.1037   18.9016 O   0  0  0  0  0  0
  -47.0681   -0.5830   17.8253 O   0  0  0  0  0  0
  -52.9041   -5.0205   16.8715 O   0  0  0  0  0  0
  -52.6934   -4.6367   19.0771 O   0  0  0  0  0  0
  -44.0699    0.9154   17.8274 O   0  0  0  0  0  0
  -47.7751   -0.4685   15.6648 N   0  0  0  0  0  0
  -51.8363   -3.1419   17.5696 N   0  0  0  0  0  0
  -44.5411   -1.1659   17.1126 N   0  0  0  0  0  0
  -43.1163   -0.8179   18.9147 N   0  0  0  0  0  0
  -44.7254    1.0614   20.3264 N   0  0  0  0  0  0
  -55.3957   -8.3454   14.7237 N   0  0  0  0  0  0
  -49.1886   -0.3111   16.0424 C   0  0  0  0  0  0
  -49.4593   -1.2441   17.2412 C   0  0  0  0  0  0
  -50.8080   -0.9443   17.9293 C   0  0  0  0  0  0
  -51.3373   -2.2248   18.6055 C   0  0  0  0  0  0
  -50.1379   -0.6374   14.8682 C   0  0  0  0  0  0
  -50.2194   -2.9127   19.4183 C   0  0  0  0  0  0
  -45.4312   -0.6468   16.0636 C   0  0  0  0  0  0
  -45.3928   -1.5257   14.7947 C   0  0  0  0  0  0
  -46.8379   -0.5678   16.6228 C   0  0  0  0  0  0
  -49.9254   -2.0041   14.2323 C   0  0  0  0  0  0
  -49.6138   -4.1449   18.7619 C   0  0  0  0  0  0
  -43.9369   -1.7778   14.3697 C   0  0  0  0  0  0
  -46.0493   -2.8923   15.0572 C   0  0  0  0  0  0
  -50.6157   -3.1011   14.7012 C   0  0  0  0  0  0
  -49.0425   -2.1555   13.1859 C   0  0  0  0  0  0
  -52.4814   -4.2725   17.9221 C   0  0  0  0  0  0
  -48.7535   -4.0097   17.6943 C   0  0  0  0  0  0
  -49.9225   -5.4053   19.2280 C   0  0  0  0  0  0
  -43.9133   -0.3054   17.9448 C   0  0  0  0  0  0
  -50.4246   -4.3379   14.1304 C   0  0  0  0  0  0
  -48.8506   -3.3918   12.6120 C   0  0  0  0  0  0
  -48.2060   -5.1226   17.0982 C   0  0  0  0  0  0
  -49.3758   -6.5191   18.6338 C   0  0  0  0  0  0
  -49.5421   -4.4845   13.0841 C   0  0  0  0  0  0
  -48.5165   -6.3778   17.5683 C   0  0  0  0  0  0
  -42.4358    0.1001   19.8430 C   0  0  0  0  0  0
  -42.9000   -2.2688   19.0775 C   0  0  0  0  0  0
  -53.3432   -6.3575   17.1685 C   0  0  0  0  0  0
  -43.4371    0.7755   20.7589 C   0  0  0  0  0  0
  -54.2311   -6.8651   16.0505 C   0  0  0  0  0  0
  -45.4538    1.6334   21.2445 C   0  0  0  0  0  0
  -43.1596    1.1230   22.0000 C   0  0  0  0  0  0
  -46.8937    2.0480   21.0264 C   0  0  0  0  0  0
  -47.8537    0.8510   21.0923 C   0  0  0  0  0  0
  -47.0755    2.7437   19.6703 C   0  0  0  0  0  0
  -54.5645   -8.1193   15.8132 C   0  0  0  0  0  0
  -55.7151   -7.2464   14.1014 C   0  0  0  0  0  0
  -51.5464    0.3654   19.2960 H   0  0  0  0  0  0
  -47.5551   -0.4918   14.8124 H   0  0  0  0  0  0
  -51.7156   -2.9416   16.7194 H   0  0  0  0  0  0
  -44.4419   -2.0329   17.2036 H   0  0  0  0  0  0
  1 44  1  0  0  0
  1 45  1  0  0  0
  2 43  1  0  0  0
  2 50  1  0  0  0
  3 16  1  0  0  0
  3 51  1  0  0  0
  4 22  2  0  0  0
  5 29  1  0  0  0
  5 41  1  0  0  0
  6 29  2  0  0  0
  7 32  2  0  0  0
  8 14  1  0  0  0
  8 22  1  0  0  0
  8 52  1  0  0  0
  9 17  1  0  0  0
  9 29  1  0  0  0
  9 53  1  0  0  0
 10 20  1  0  0  0
 10 32  1  0  0  0
 10 54  1  0  0  0
 11 32  1  0  0  0
 11 39  1  0  0  0
 11 40  1  0  0  0
 12 42  1  0  0  0
 12 44  2  0  0  0
 13 49  1  0  0  0
 13 50  2  0  0  0
 14 15  1  0  0  0
 14 18  1  0  0  0
 15 16  1  0  0  0
 16 17  1  0  0  0
 17 19  1  0  0  0
 18 23  1  0  0  0
 19 24  1  0  0  0
 20 21  1  0  0  0
 20 22  1  0  0  0
 21 25  1  0  0  0
 21 26  1  0  0  0
 23 27  2  0  0  0
 23 28  1  0  0  0
 24 30  2  0  0  0
 24 31  1  0  0  0
 27 33  1  0  0  0
 28 34  2  0  0  0
 30 35  1  0  0  0
 31 36  2  0  0  0
 33 37  2  0  0  0
 34 37  1  0  0  0
 35 38  2  0  0  0
 36 38  1  0  0  0
 39 42  1  0  0  0
 41 43  1  0  0  0
 42 45  2  0  0  0
 43 49  2  0  0  0
 44 46  1  0  0  0
 46 47  1  0  0  0
 46 48  1  0  0  0
M  END
>  <CHROM.0>
57.33253153,-172.19490952,52.96275947

>  <CHROM.1>
174.80253788,-12.65975411,159.25016754,-40.86239948,-172.92047870,146.56140204
68.71152687,167.18610903,54.02563182,-85.46974330,164.19125377,16.84850802
90.40187572,74.30939149,-49.94810016,18.06734698,-32.00215825,-16.89913125
-102.95683552,-48.62999398,-2.31704155,17.45419129,0.56986494,0.47377011
1.18818889

>  <HEADER>
                                                                          

>  <MASTER>
        0    0    0    0    0    0    0    0   98    0   98    0          

>  <Name>
Ritonavir.pdb

>  <RI>
-7.06522e+08

>  <Rbt.Current_Directory>
/root/miniconda3/envs/rdock/share/rxdock-2013.1.1_148c5bd1-0/data/ligands/prepped_ligands/Ritonavir

>  <Rbt.Executable>
rbdock/0.1.0

>  <Rbt.Library>
librxdock.so/0.1.0

>  <Rbt.Parameter_File>
/root/miniconda3/envs/rdock/share/rxdock-2013.1.1_148c5bd1-0/data/scripts/dock.prm

>  <Rbt.Receptor>
def.prm

>  <SCORE>
-15.2548

>  <SCORE.INTER>
-13.0872

>  <SCORE.INTER.CONST>
1

>  <SCORE.INTER.POLAR>
0

>  <SCORE.INTER.REPUL>
0

>  <SCORE.INTER.ROT>
18

>  <SCORE.INTER.VDW>
-36.4872

>  <SCORE.INTER.norm>
-0.261744

>  <SCORE.INTRA>
-1.96038

>  <SCORE.INTRA.DIHEDRAL>
-5.41399

>  <SCORE.INTRA.DIHEDRAL.0>
28.8748

>  <SCORE.INTRA.POLAR>
0

>  <SCORE.INTRA.POLAR.0>
0

>  <SCORE.INTRA.REPUL>
0.0423564

>  <SCORE.INTRA.REPUL.0>
0

>  <SCORE.INTRA.VDW>
0.534835

>  <SCORE.INTRA.VDW.0>
-1.74536

>  <SCORE.INTRA.norm>
-0.0392075

>  <SCORE.RESTR>
0.668492

>  <SCORE.RESTR.CAVITY>
0.668492

>  <SCORE.RESTR.norm>
0.0133698

>  <SCORE.SYSTEM>
-0.875746

>  <SCORE.SYSTEM.CONST>
0

>  <SCORE.SYSTEM.DIHEDRAL>
0.442577

>  <SCORE.SYSTEM.VDW>
-1.09703

>  <SCORE.SYSTEM.norm>
-0.0175149

>  <SCORE.heavy>
50

>  <SCORE.norm>
-0.305097

>  <TITLE>
    Ritonavir_D                                                           

$$$$
Ritonavir.pdb
  RxDock  02242101353D
librxdock.so/0.1.0
 54 57  0  0  0  0  0  0  0  0999 V2000
  -42.2894   -0.7182   19.0390 S   0  0  0  0  0  0
  -48.0033   -6.5451   18.4971 S   0  0  0  0  0  0
  -52.5215   -2.4080   15.6042 O   0  0  0  0  0  0
  -48.5650   -2.9629   18.9754 O   0  0  0  0  0  0
  -50.9599   -6.9243   18.7050 O   0  0  0  0  0  0
  -50.5330   -6.8669   16.4980 O   0  0  0  0  0  0
  -46.4233   -1.5266   21.5410 O   0  0  0  0  0  0
  -50.2022   -1.3828   18.9140 N   0  0  0  0  0  0
  -52.0788   -5.4396   17.4009 N   0  0  0  0  0  0
  -48.3544   -0.4680   21.0769 N   0  0  0  0  0  0
  -46.3895    0.7267   21.4093 N   0  0  0  0  0  0
  -44.7964   -0.2137   19.3582 N   0  0  0  0  0  0
  -46.6558   -8.7294   18.2965 N   0  0  0  0  0  0
  -50.5359   -1.6558   17.5071 C   0  0  0  0  0  0
  -51.0301   -3.1148   17.4180 C   0  0  0  0  0  0
  -51.6318   -3.4507   16.0369 C   0  0  0  0  0  0
  -52.3858   -4.7931   16.1160 C   0  0  0  0  0  0
  -49.3261   -1.4286   16.5739 C   0  0  0  0  0  0
  -53.9086   -4.5699   15.9938 C   0  0  0  0  0  0
  -49.0782   -1.7446   20.9854 C   0  0  0  0  0  0
  -50.4502   -1.6759   21.6905 C   0  0  0  0  0  0
  -49.2416   -2.1004   19.5210 C   0  0  0  0  0  0
  -49.4906   -1.9799   15.1645 C   0  0  0  0  0  0
  -54.6679   -5.6908   15.2989 C   0  0  0  0  0  0
  -51.0289   -3.0901   21.8605 C   0  0  0  0  0  0
  -50.3137   -1.0523   23.0904 C   0  0  0  0  0  0
  -50.2218   -1.2808   14.2283 C   0  0  0  0  0  0
  -48.9122   -3.1800   14.8143 C   0  0  0  0  0  0
  -51.1602   -6.4253   17.4589 C   0  0  0  0  0  0
  -54.6894   -5.7649   13.9234 C   0  0  0  0  0  0
  -55.3418   -6.6389   16.0392 C   0  0  0  0  0  0
  -47.0312   -0.4664   21.3531 C   0  0  0  0  0  0
  -50.3744   -1.7769   12.9545 C   0  0  0  0  0  0
  -49.0621   -3.6779   13.5398 C   0  0  0  0  0  0
  -55.3767   -6.7767   13.2929 C   0  0  0  0  0  0
  -56.0291   -7.6515   15.4108 C   0  0  0  0  0  0
  -49.7936   -2.9762   12.6085 C   0  0  0  0  0  0
  -56.0463   -7.7208   14.0365 C   0  0  0  0  0  0
  -44.9448    0.7513   21.6921 C   0  0  0  0  0  0
  -47.0858    2.0111   21.1991 C   0  0  0  0  0  0
  -50.3497   -8.2241   18.7875 C   0  0  0  0  0  0
  -44.1622    0.1631   20.5348 C   0  0  0  0  0  0
  -48.8522   -8.1000   18.5923 C   0  0  0  0  0  0
  -43.9719   -0.6905   18.4675 C   0  0  0  0  0  0
  -42.8570   -0.0200   20.5656 C   0  0  0  0  0  0
  -44.4106   -1.1734   17.1010 C   0  0  0  0  0  0
  -45.5084   -0.2828   16.5010 C   0  0  0  0  0  0
  -44.9315   -2.6160   17.1589 C   0  0  0  0  0  0
  -47.9867   -9.0878   18.4670 C   0  0  0  0  0  0
  -46.4822   -7.4383   18.2892 C   0  0  0  0  0  0
  -52.8314   -2.5600   14.6599 H   0  0  0  0  0  0
  -50.6391   -0.7532   19.3478 H   0  0  0  0  0  0
  -52.4952   -5.1720   18.1306 H   0  0  0  0  0  0
  -48.7840    0.2826   20.9295 H   0  0  0  0  0  0
  1 44  1  0  0  0
  1 45  1  0  0  0
  2 43  1  0  0  0
  2 50  1  0  0  0
  3 16  1  0  0  0
  3 51  1  0  0  0
  4 22  2  0  0  0
  5 29  1  0  0  0
  5 41  1  0  0  0
  6 29  2  0  0  0
  7 32  2  0  0  0
  8 14  1  0  0  0
  8 22  1  0  0  0
  8 52  1  0  0  0
  9 17  1  0  0  0
  9 29  1  0  0  0
  9 53  1  0  0  0
 10 20  1  0  0  0
 10 32  1  0  0  0
 10 54  1  0  0  0
 11 32  1  0  0  0
 11 39  1  0  0  0
 11 40  1  0  0  0
 12 42  1  0  0  0
 12 44  2  0  0  0
 13 49  1  0  0  0
 13 50  2  0  0  0
 14 15  1  0  0  0
 14 18  1  0  0  0
 15 16  1  0  0  0
 16 17  1  0  0  0
 17 19  1  0  0  0
 18 23  1  0  0  0
 19 24  1  0  0  0
 20 21  1  0  0  0
 20 22  1  0  0  0
 21 25  1  0  0  0
 21 26  1  0  0  0
 23 27  2  0  0  0
 23 28  1  0  0  0
 24 30  2  0  0  0
 24 31  1  0  0  0
 27 33  1  0  0  0
 28 34  2  0  0  0
 30 35  1  0  0  0
 31 36  2  0  0  0
 33 37  2  0  0  0
 34 37  1  0  0  0
 35 38  2  0  0  0
 36 38  1  0  0  0
 39 42  1  0  0  0
 41 43  1  0  0  0
 42 45  2  0  0  0
 43 49  2  0  0  0
 44 46  1  0  0  0
 46 47  1  0  0  0
 46 48  1  0  0  0
M  END
>  <CHROM.0>
-151.13929887,64.07371610,173.18419077

>  <CHROM.1>
173.02623280,-19.60294728,79.47560280,61.11617436,-100.02382382,137.29294113
68.38902907,170.47152073,166.96193348,-45.57429150,-132.43647024,-92.44870199
79.53593472,-80.77102371,-166.93370818,104.27129803,5.12169151,7.40848922
-141.55048963,-49.10862440,-3.36108340,17.89584541,-0.42405463,0.62048053
2.90528997

>  <HEADER>
                                                                          

>  <MASTER>
        0    0    0    0    0    0    0    0   98    0   98    0          

>  <Name>
Ritonavir.pdb

>  <RI>
-7.06522e+08

>  <Rbt.Current_Directory>
/root/miniconda3/envs/rdock/share/rxdock-2013.1.1_148c5bd1-0/data/ligands/prepped_ligands/Ritonavir

>  <Rbt.Executable>
rbdock/0.1.0

>  <Rbt.Library>
librxdock.so/0.1.0

>  <Rbt.Parameter_File>
/root/miniconda3/envs/rdock/share/rxdock-2013.1.1_148c5bd1-0/data/scripts/dock.prm

>  <Rbt.Receptor>
def.prm

>  <SCORE>
-4.79481

>  <SCORE.INTER>
-7.76334

>  <SCORE.INTER.CONST>
1

>  <SCORE.INTER.POLAR>
-0.480944

>  <SCORE.INTER.REPUL>
0

>  <SCORE.INTER.ROT>
18

>  <SCORE.INTER.VDW>
-29.5281

>  <SCORE.INTER.norm>
-0.155267

>  <SCORE.INTRA>
-0.321526

>  <SCORE.INTRA.DIHEDRAL>
-1.25066

>  <SCORE.INTRA.DIHEDRAL.0>
28.8748

>  <SCORE.INTRA.POLAR>
0

>  <SCORE.INTRA.POLAR.0>
0

>  <SCORE.INTRA.REPUL>
0

>  <SCORE.INTRA.REPUL.0>
0

>  <SCORE.INTRA.VDW>
0.303803

>  <SCORE.INTRA.VDW.0>
-1.74536

>  <SCORE.INTRA.norm>
-0.00643052

>  <SCORE.RESTR>
3.1731

>  <SCORE.RESTR.CAVITY>
3.1731

>  <SCORE.RESTR.norm>
0.0634619

>  <SCORE.SYSTEM>
0.116962

>  <SCORE.SYSTEM.CONST>
0

>  <SCORE.SYSTEM.DIHEDRAL>
1.87914

>  <SCORE.SYSTEM.VDW>
-0.82261

>  <SCORE.SYSTEM.norm>
0.00233924

>  <SCORE.heavy>
50

>  <SCORE.norm>
-0.0958962

>  <TITLE>
    Ritonavir_D                                                           

$$$$
Ritonavir.pdb
  RxDock  02242101363D
librxdock.so/0.1.0
 54 57  0  0  0  0  0  0  0  0999 V2000
  -43.2322    0.8848   19.4110 S   0  0  0  0  0  0
  -50.0371   -6.1297   20.7934 S   0  0  0  0  0  0
  -53.9612   -4.1185   17.4463 O   0  0  0  0  0  0
  -48.2307   -3.8828   15.8787 O   0  0  0  0  0  0
  -50.6237   -7.6039   18.0202 O   0  0  0  0  0  0
  -49.7545   -6.4623   16.2888 O   0  0  0  0  0  0
  -46.6316   -2.1109   17.0886 O   0  0  0  0  0  0
  -49.7961   -2.4322   16.6701 N   0  0  0  0  0  0
  -51.8291   -5.9190   17.0902 N   0  0  0  0  0  0
  -46.8333   -1.7101   14.8833 N   0  0  0  0  0  0
  -44.7448   -2.0227   15.8525 N   0  0  0  0  0  0
  -45.0914   -0.7176   18.6256 N   0  0  0  0  0  0
  -52.1286   -4.7090   21.2773 N   0  0  0  0  0  0
  -50.3221   -3.3956   17.6502 C   0  0  0  0  0  0
  -51.8037   -3.0455   17.9016 C   0  0  0  0  0  0
  -52.7427   -3.6565   16.8399 C   0  0  0  0  0  0
  -52.0275   -4.8231   16.1296 C   0  0  0  0  0  0
  -49.5206   -3.3692   18.9705 C   0  0  0  0  0  0
  -52.8616   -5.3234   14.9306 C   0  0  0  0  0  0
  -48.2987   -1.6490   14.9881 C   0  0  0  0  0  0
  -48.9749   -1.7310   13.6024 C   0  0  0  0  0  0
  -48.7639   -2.7805   15.8831 C   0  0  0  0  0  0
  -49.3701   -1.9924   19.6021 C   0  0  0  0  0  0
  -54.2060   -5.9364   15.2950 C   0  0  0  0  0  0
  -48.7328   -3.1143   12.9766 C   0  0  0  0  0  0
  -50.4954   -1.5297   13.7243 C   0  0  0  0  0  0
  -49.6384   -1.8120   20.9420 C   0  0  0  0  0  0
  -48.9664   -0.9175   18.8411 C   0  0  0  0  0  0
  -50.6861   -6.6345   17.0724 C   0  0  0  0  0  0
  -55.3331   -5.1469   15.3605 C   0  0  0  0  0  0
  -54.3065   -7.2849   15.5646 C   0  0  0  0  0  0
  -46.0922   -1.9515   15.9876 C   0  0  0  0  0  0
  -49.5055   -0.5688   21.5157 C   0  0  0  0  0  0
  -48.8312    0.3272   19.4131 C   0  0  0  0  0  0
  -56.5495   -5.6989   15.6914 C   0  0  0  0  0  0
  -55.5217   -7.8387   15.8950 C   0  0  0  0  0  0
  -49.1007    0.5024   20.7516 C   0  0  0  0  0  0
  -56.6443   -7.0452   15.9580 C   0  0  0  0  0  0
  -43.9188   -2.3013   17.0390 C   0  0  0  0  0  0
  -44.0676   -1.8286   14.5555 C   0  0  0  0  0  0
  -51.7039   -7.6470   18.9689 C   0  0  0  0  0  0
  -43.9254   -1.1180   17.9862 C   0  0  0  0  0  0
  -51.5575   -6.5132   19.9633 C   0  0  0  0  0  0
  -44.9134    0.3092   19.4096 C   0  0  0  0  0  0
  -42.8483   -0.4103   18.2640 C   0  0  0  0  0  0
  -46.0258    0.9405   20.2200 C   0  0  0  0  0  0
  -46.3307    2.3738   19.7604 C   0  0  0  0  0  0
  -45.6794    0.9720   21.7150 C   0  0  0  0  0  0
  -52.4991   -5.6736   20.3492 C   0  0  0  0  0  0
  -50.8750   -4.7995   21.6199 C   0  0  0  0  0  0
  -53.7755   -4.7614   18.1968 H   0  0  0  0  0  0
  -50.1605   -1.6327   16.6110 H   0  0  0  0  0  0
  -52.4602   -6.0976   17.6796 H   0  0  0  0  0  0
  -46.4527   -1.6108   14.0990 H   0  0  0  0  0  0
  1 44  1  0  0  0
  1 45  1  0  0  0
  2 43  1  0  0  0
  2 50  1  0  0  0
  3 16  1  0  0  0
  3 51  1  0  0  0
  4 22  2  0  0  0
  5 29  1  0  0  0
  5 41  1  0  0  0
  6 29  2  0  0  0
  7 32  2  0  0  0
  8 14  1  0  0  0
  8 22  1  0  0  0
  8 52  1  0  0  0
  9 17  1  0  0  0
  9 29  1  0  0  0
  9 53  1  0  0  0
 10 20  1  0  0  0
 10 32  1  0  0  0
 10 54  1  0  0  0
 11 32  1  0  0  0
 11 39  1  0  0  0
 11 40  1  0  0  0
 12 42  1  0  0  0
 12 44  2  0  0  0
 13 49  1  0  0  0
 13 50  2  0  0  0
 14 15  1  0  0  0
 14 18  1  0  0  0
 15 16  1  0  0  0
 16 17  1  0  0  0
 17 19  1  0  0  0
 18 23  1  0  0  0
 19 24  1  0  0  0
 20 21  1  0  0  0
 20 22  1  0  0  0
 21 25  1  0  0  0
 21 26  1  0  0  0
 23 27  2  0  0  0
 23 28  1  0  0  0
 24 30  2  0  0  0
 24 31  1  0  0  0
 27 33  1  0  0  0
 28 34  2  0  0  0
 30 35  1  0  0  0
 31 36  2  0  0  0
 33 37  2  0  0  0
 34 37  1  0  0  0
 35 38  2  0  0  0
 36 38  1  0  0  0
 39 42  1  0  0  0
 41 43  1  0  0  0
 42 45  2  0  0  0
 43 49  2  0  0  0
 44 46  1  0  0  0
 46 47  1  0  0  0
 46 48  1  0  0  0
M  END
>  <CHROM.0>
35.91212079,-171.83718733,-131.36582255

>  <CHROM.1>
-54.91057953,174.32387937,-74.64332946,-153.59590283,-141.18506394,-165.27792871
-69.98328850,83.64435829,52.85458480,141.32144480,-54.71244236,55.74358475
131.57810355,90.51436518,66.28942320,-36.74179852,65.11849924,-47.74678140
65.06147234,-49.35936704,-3.15610983,17.70807495,0.22639179,0.59448257,1.44444281

>  <HEADER>
                                                                          

>  <MASTER>
        0    0    0    0    0    0    0    0   98    0   98    0          

>  <Name>
Ritonavir.pdb

>  <RI>
-7.06522e+08

>  <Rbt.Current_Directory>
/root/miniconda3/envs/rdock/share/rxdock-2013.1.1_148c5bd1-0/data/ligands/prepped_ligands/Ritonavir

>  <Rbt.Executable>
rbdock/0.1.0

>  <Rbt.Library>
librxdock.so/0.1.0

>  <Rbt.Parameter_File>
/root/miniconda3/envs/rdock/share/rxdock-2013.1.1_148c5bd1-0/data/scripts/dock.prm

>  <Rbt.Receptor>
def.prm

>  <SCORE>
-16.434

>  <SCORE.INTER>
-13.5241

>  <SCORE.INTER.CONST>
1

>  <SCORE.INTER.POLAR>
-1.63075

>  <SCORE.INTER.REPUL>
0.00610814

>  <SCORE.INTER.ROT>
18

>  <SCORE.INTER.VDW>
-31.4101

>  <SCORE.INTER.norm>
-0.270482

>  <SCORE.INTRA>
-5.49709

>  <SCORE.INTRA.DIHEDRAL>
-10.913

>  <SCORE.INTRA.DIHEDRAL.0>
28.8748

>  <SCORE.INTRA.POLAR>
0

>  <SCORE.INTRA.POLAR.0>
0

>  <SCORE.INTRA.REPUL>
0.0215209

>  <SCORE.INTRA.REPUL.0>
0

>  <SCORE.INTRA.VDW>
-0.148197

>  <SCORE.INTRA.VDW.0>
-1.74536

>  <SCORE.INTRA.norm>
-0.109942

>  <SCORE.RESTR>
0.418651

>  <SCORE.RESTR.CAVITY>
0.418651

>  <SCORE.RESTR.norm>
0.00837302

>  <SCORE.SYSTEM>
2.16851

>  <SCORE.SYSTEM.CONST>
0

>  <SCORE.SYSTEM.DIHEDRAL>
4.87069

>  <SCORE.SYSTEM.VDW>
-0.266834

>  <SCORE.SYSTEM.norm>
0.0433702

>  <SCORE.heavy>
50

>  <SCORE.norm>
-0.32868

>  <TITLE>
    Ritonavir_D                                                           

$$$$
Ritonavir.pdb
  RxDock  02242101363D
librxdock.so/0.1.0
 54 57  0  0  0  0  0  0  0  0999 V2000
  -45.4977   -0.5098   23.0968 S   0  0  0  0  0  0
  -56.1316   -6.9256   16.0812 S   0  0  0  0  0  0
  -49.7180   -3.0542   15.8208 O   0  0  0  0  0  0
  -46.4973   -1.9165   18.2457 O   0  0  0  0  0  0
  -53.8934   -4.4912   15.2612 O   0  0  0  0  0  0
  -53.2362   -6.1360   16.6466 O   0  0  0  0  0  0
  -46.6033    0.9519   18.8586 O   0  0  0  0  0  0
  -48.4886   -1.2694   17.3530 N   0  0  0  0  0  0
  -51.8126   -4.4083   16.1670 N   0  0  0  0  0  0
  -45.3446    0.3256   17.1012 N   0  0  0  0  0  0
  -44.4101    1.4860   18.8841 N   0  0  0  0  0  0
  -46.5272    0.9166   21.2135 N   0  0  0  0  0  0
  -54.7232   -8.9401   15.3160 N   0  0  0  0  0  0
  -49.2758   -2.0799   18.2956 C   0  0  0  0  0  0
  -48.8931   -3.5583   18.0745 C   0  0  0  0  0  0
  -49.4472   -4.1190   16.7475 C   0  0  0  0  0  0
  -50.7338   -4.9218   17.0247 C   0  0  0  0  0  0
  -50.7945   -1.8721   18.1046 C   0  0  0  0  0  0
  -50.5103   -6.4229   16.7413 C   0  0  0  0  0  0
  -46.4988   -0.3136   16.4518 C   0  0  0  0  0  0
  -46.0880   -1.0663   15.1678 C   0  0  0  0  0  0
  -47.1479   -1.2564   17.4456 C   0  0  0  0  0  0
  -51.6699   -2.5270   19.1640 C   0  0  0  0  0  0
  -49.7631   -7.1776   17.8312 C   0  0  0  0  0  0
  -45.5547   -0.0746   14.1210 C   0  0  0  0  0  0
  -44.9715   -2.0826   15.4644 C   0  0  0  0  0  0
  -51.2245   -3.6450   19.8361 C   0  0  0  0  0  0
  -52.9122   -2.0096   19.4580 C   0  0  0  0  0  0
  -52.9777   -5.0806   16.0712 C   0  0  0  0  0  0
  -48.7619   -8.0640   17.4993 C   0  0  0  0  0  0
  -50.0831   -6.9827   19.1581 C   0  0  0  0  0  0
  -45.4991    0.9248   18.3029 C   0  0  0  0  0  0
  -52.0137   -4.2406   20.7924 C   0  0  0  0  0  0
  -53.7031   -2.6030   20.4156 C   0  0  0  0  0  0
  -48.0860   -8.7487   18.4832 C   0  0  0  0  0  0
  -49.4082   -7.6659   20.1433 C   0  0  0  0  0  0
  -53.2541   -3.7195   21.0839 C   0  0  0  0  0  0
  -48.4086   -8.5493   19.8057 C   0  0  0  0  0  0
  -44.5516    2.1296   20.2007 C   0  0  0  0  0  0
  -43.0797    1.4798   18.2449 C   0  0  0  0  0  0
  -54.5166   -5.3324   14.2750 C   0  0  0  0  0  0
  -45.1618    1.1704   21.2032 C   0  0  0  0  0  0
  -54.8445   -6.6800   14.8851 C   0  0  0  0  0  0
  -46.8775    0.0613   22.1335 C   0  0  0  0  0  0
  -44.4526    0.5238   22.1070 C   0  0  0  0  0  0
  -48.3077   -0.3841   22.3549 C   0  0  0  0  0  0
  -48.3870   -1.8255   22.8788 C   0  0  0  0  0  0
  -49.1287   -0.2903   21.0614 C   0  0  0  0  0  0
  -54.2474   -7.8289   14.6319 C   0  0  0  0  0  0
  -55.7094   -8.6504   16.1164 C   0  0  0  0  0  0
  -48.8702   -2.6000   15.5276 H   0  0  0  0  0  0
  -48.9043   -0.7956   16.7380 H   0  0  0  0  0  0
  -51.6920   -3.6557   15.7235 H   0  0  0  0  0  0
  -44.5589    0.2934   16.7123 H   0  0  0  0  0  0
  1 44  1  0  0  0
  1 45  1  0  0  0
  2 43  1  0  0  0
  2 50  1  0  0  0
  3 16  1  0  0  0
  3 51  1  0  0  0
  4 22  2  0  0  0
  5 29  1  0  0  0
  5 41  1  0  0  0
  6 29  2  0  0  0
  7 32  2  0  0  0
  8 14  1  0  0  0
  8 22  1  0  0  0
  8 52  1  0  0  0
  9 17  1  0  0  0
  9 29  1  0  0  0
  9 53  1  0  0  0
 10 20  1  0  0  0
 10 32  1  0  0  0
 10 54  1  0  0  0
 11 32  1  0  0  0
 11 39  1  0  0  0
 11 40  1  0  0  0
 12 42  1  0  0  0
 12 44  2  0  0  0
 13 49  1  0  0  0
 13 50  2  0  0  0
 14 15  1  0  0  0
 14 18  1  0  0  0
 15 16  1  0  0  0
 16 17  1  0  0  0
 17 19  1  0  0  0
 18 23  1  0  0  0
 19 24  1  0  0  0
 20 21  1  0  0  0
 20 22  1  0  0  0
 21 25  1  0  0  0
 21 26  1  0  0  0
 23 27  2  0  0  0
 23 28  1  0  0  0
 24 30  2  0  0  0
 24 31  1  0  0  0
 27 33  1  0  0  0
 28 34  2  0  0  0
 30 35  1  0  0  0
 31 36  2  0  0  0
 33 37  2  0  0  0
 34 37  1  0  0  0
 35 38  2  0  0  0
 36 38  1  0  0  0
 39 42  1  0  0  0
 41 43  1  0  0  0
 42 45  2  0  0  0
 43 49  2  0  0  0
 44 46  1  0  0  0
 46 47  1  0  0  0
 46 48  1  0  0  0
M  END
>  <CHROM.0>
60.25898541,131.35468683,146.07882050

>  <CHROM.1>
66.72222210,-49.39072074,41.35552495,-62.81382218,169.57476579,-173.96463119
54.54230782,-71.83677632,-172.00089544,22.47698789,4.49176348,-161.31104321
-26.96522819,-135.90376328,-64.22027288,-36.77718794,-78.38284681,71.16789453
-31.35304498,-49.43237536,-3.12609516,18.26021964,0.39906141,0.67659042,1.42312772

>  <HEADER>
                                                                          

>  <MASTER>
        0    0    0    0    0    0    0    0   98    0   98    0          

>  <Name>
Ritonavir.pdb

>  <RI>
-7.06522e+08

>  <Rbt.Current_Directory>
/root/miniconda3/envs/rdock/share/rxdock-2013.1.1_148c5bd1-0/data/ligands/prepped_ligands/Ritonavir

>  <Rbt.Executable>
rbdock/0.1.0

>  <Rbt.Library>
librxdock.so/0.1.0

>  <Rbt.Parameter_File>
/root/miniconda3/envs/rdock/share/rxdock-2013.1.1_148c5bd1-0/data/scripts/dock.prm

>  <Rbt.Receptor>
def.prm

>  <SCORE>
13.8148

>  <SCORE.INTER>
1.92826

>  <SCORE.INTER.CONST>
1

>  <SCORE.INTER.POLAR>
-0.404087

>  <SCORE.INTER.REPUL>
0

>  <SCORE.INTER.ROT>
18

>  <SCORE.INTER.VDW>
-20.0978

>  <SCORE.INTER.norm>
0.0385652

>  <SCORE.INTRA>
6.26306

>  <SCORE.INTRA.DIHEDRAL>
7.90028

>  <SCORE.INTRA.DIHEDRAL.0>
28.8748

>  <SCORE.INTRA.POLAR>
-0.21649

>  <SCORE.INTRA.POLAR.0>
0

>  <SCORE.INTRA.REPUL>
0

>  <SCORE.INTRA.REPUL.0>
0

>  <SCORE.INTRA.VDW>
3.04899

>  <SCORE.INTRA.VDW.0>
-1.74536

>  <SCORE.INTRA.norm>
0.125261

>  <SCORE.RESTR>
1.99234

>  <SCORE.RESTR.CAVITY>
1.99234

>  <SCORE.RESTR.norm>
0.0398468

>  <SCORE.SYSTEM>
3.63111

>  <SCORE.SYSTEM.CONST>
0

>  <SCORE.SYSTEM.DIHEDRAL>
8.76454

>  <SCORE.SYSTEM.VDW>
-0.751167

>  <SCORE.SYSTEM.norm>
0.0726221

>  <SCORE.heavy>
50

>  <SCORE.norm>
0.276295

>  <TITLE>
    Ritonavir_D                                                           

$$$$
Ritonavir.pdb
  RxDock  02242101363D
librxdock.so/0.1.0
 54 57  0  0  0  0  0  0  0  0999 V2000
  -42.4102    0.2815   21.8566 S   0  0  0  0  0  0
  -54.4344   -8.6550   15.1865 S   0  0  0  0  0  0
  -51.5331   -1.4465   17.8516 O   0  0  0  0  0  0
  -48.9060   -2.3846   16.5659 O   0  0  0  0  0  0
  -53.7541   -5.4616   14.2710 O   0  0  0  0  0  0
  -54.8381   -4.3725   15.9127 O   0  0  0  0  0  0
  -46.1265    1.2329   18.5129 O   0  0  0  0  0  0
  -49.3335   -0.3821   15.5717 N   0  0  0  0  0  0
  -52.5492   -4.4145   15.8861 N   0  0  0  0  0  0
  -47.4459   -0.5838   18.3591 N   0  0  0  0  0  0
  -46.9209    0.3372   20.4267 N   0  0  0  0  0  0
  -43.8961    1.7652   20.3625 N   0  0  0  0  0  0
  -56.4775   -8.1722   16.6763 N   0  0  0  0  0  0
  -50.6153   -0.8348   15.0084 C   0  0  0  0  0  0
  -50.9250   -2.2231   15.6064 C   0  0  0  0  0  0
  -52.0107   -2.1649   16.7019 C   0  0  0  0  0  0
  -52.4165   -3.5975   17.1018 C   0  0  0  0  0  0
  -50.5756   -0.8987   13.4655 C   0  0  0  0  0  0
  -51.3591   -4.2212   18.0380 C   0  0  0  0  0  0
  -47.3569   -0.5730   16.8914 C   0  0  0  0  0  0
  -46.0892   -1.2981   16.3901 C   0  0  0  0  0  0
  -48.6068   -1.2210   16.3295 C   0  0  0  0  0  0
  -49.6538    0.1167   12.8049 C   0  0  0  0  0  0
  -51.2522   -5.7376   17.9656 C   0  0  0  0  0  0
  -44.8412   -0.4539   16.6961 C   0  0  0  0  0  0
  -45.9226   -2.6560   17.0942 C   0  0  0  0  0  0
  -48.3082   -0.1519   12.6738 C   0  0  0  0  0  0
  -50.1555    1.3103   12.3348 C   0  0  0  0  0  0
  -53.7724   -4.7171   15.4056 C   0  0  0  0  0  0
  -52.3878   -6.5075   17.8406 C   0  0  0  0  0  0
  -50.0197   -6.3527   18.0269 C   0  0  0  0  0  0
  -46.8008    0.3630   19.0763 C   0  0  0  0  0  0
  -47.4719    0.7643   12.0793 C   0  0  0  0  0  0
  -49.3209    2.2281   11.7383 C   0  0  0  0  0  0
  -52.2936   -7.8789   17.7766 C   0  0  0  0  0  0
  -49.9234   -7.7236   17.9626 C   0  0  0  0  0  0
  -47.9778    1.9555   11.6099 C   0  0  0  0  0  0
  -51.0612   -8.4873   17.8368 C   0  0  0  0  0  0
  -46.2405    1.3687   21.2270 C   0  0  0  0  0  0
  -47.7100   -0.6916   21.1320 C   0  0  0  0  0  0
  -54.9847   -6.1113   13.9075 C   0  0  0  0  0  0
  -44.7448    1.1244   21.2558 C   0  0  0  0  0  0
  -55.3432   -7.1496   14.9512 C   0  0  0  0  0  0
  -42.6435    1.4462   20.5348 C   0  0  0  0  0  0
  -44.1631    0.3107   22.1147 C   0  0  0  0  0  0
  -41.5182    2.0058   19.6901 C   0  0  0  0  0  0
  -40.7260    3.0917   20.4330 C   0  0  0  0  0  0
  -42.0473    2.6010   18.3779 C   0  0  0  0  0  0
  -56.3450   -7.0963   15.8080 C   0  0  0  0  0  0
  -55.5613   -9.0798   16.4918 C   0  0  0  0  0  0
  -52.2188   -1.4353   18.5868 H   0  0  0  0  0  0
  -49.0557    0.4378   15.4105 H   0  0  0  0  0  0
  -51.8233   -4.6971   15.4730 H   0  0  0  0  0  0
  -47.9361   -1.1931   18.7567 H   0  0  0  0  0  0
  1 44  1  0  0  0
  1 45  1  0  0  0
  2 43  1  0  0  0
  2 50  1  0  0  0
  3 16  1  0  0  0
  3 51  1  0  0  0
  4 22  2  0  0  0
  5 29  1  0  0  0
  5 41  1  0  0  0
  6 29  2  0  0  0
  7 32  2  0  0  0
  8 14  1  0  0  0
  8 22  1  0  0  0
  8 52  1  0  0  0
  9 17  1  0  0  0
  9 29  1  0  0  0
  9 53  1  0  0  0
 10 20  1  0  0  0
 10 32  1  0  0  0
 10 54  1  0  0  0
 11 32  1  0  0  0
 11 39  1  0  0  0
 11 40  1  0  0  0
 12 42  1  0  0  0
 12 44  2  0  0  0
 13 49  1  0  0  0
 13 50  2  0  0  0
 14 15  1  0  0  0
 14 18  1  0  0  0
 15 16  1  0  0  0
 16 17  1  0  0  0
 17 19  1  0  0  0
 18 23  1  0  0  0
 19 24  1  0  0  0
 20 21  1  0  0  0
 20 22  1  0  0  0
 21 25  1  0  0  0
 21 26  1  0  0  0
 23 27  2  0  0  0
 23 28  1  0  0  0
 24 30  2  0  0  0
 24 31  1  0  0  0
 27 33  1  0  0  0
 28 34  2  0  0  0
 30 35  1  0  0  0
 31 36  2  0  0  0
 33 37  2  0  0  0
 34 37  1  0  0  0
 35 38  2  0  0  0
 36 38  1  0  0  0
 39 42  1  0  0  0
 41 43  1  0  0  0
 42 45  2  0  0  0
 43 49  2  0  0  0
 44 46  1  0  0  0
 46 47  1  0  0  0
 46 48  1  0  0  0
M  END
>  <CHROM.0>
-123.52751722,56.34888026,-60.57183240

>  <CHROM.1>
-177.62922983,-16.04095266,-65.10279520,7.09459444,-103.55025245,84.72212560
-73.09063405,104.03559961,-30.69106473,-66.75111564,-164.81433938,-31.25473433
83.87968782,-39.32260667,-71.76932175,-61.30850613,95.26711738,-69.50097040
-76.92163011,-49.17982164,-2.29904781,17.05806123,-0.14363107,0.69900123
2.23454288

>  <HEADER>
                                                                          

>  <MASTER>
        0    0    0    0    0    0    0    0   98    0   98    0          

>  <Name>
Ritonavir.pdb

>  <RI>
-7.06522e+08

>  <Rbt.Current_Directory>
/root/miniconda3/envs/rdock/share/rxdock-2013.1.1_148c5bd1-0/data/ligands/prepped_ligands/Ritonavir

>  <Rbt.Executable>
rbdock/0.1.0

>  <Rbt.Library>
librxdock.so/0.1.0

>  <Rbt.Parameter_File>
/root/miniconda3/envs/rdock/share/rxdock-2013.1.1_148c5bd1-0/data/scripts/dock.prm

>  <Rbt.Receptor>
def.prm

>  <SCORE>
7.43608

>  <SCORE.INTER>
-6.28095

>  <SCORE.INTER.CONST>
1

>  <SCORE.INTER.POLAR>
0

>  <SCORE.INTER.REPUL>
0

>  <SCORE.INTER.ROT>
18

>  <SCORE.INTER.VDW>
-29.6809

>  <SCORE.INTER.norm>
-0.125619

>  <SCORE.INTRA>
10.6718

>  <SCORE.INTRA.DIHEDRAL>
-3.82381

>  <SCORE.INTRA.DIHEDRAL.0>
28.8748

>  <SCORE.INTRA.POLAR>
0

>  <SCORE.INTRA.POLAR.0>
0

>  <SCORE.INTRA.REPUL>
0

>  <SCORE.INTRA.REPUL.0>
0

>  <SCORE.INTRA.VDW>
12.5837

>  <SCORE.INTRA.VDW.0>
-1.74536

>  <SCORE.INTRA.norm>
0.213435

>  <SCORE.RESTR>
1.47871

>  <SCORE.RESTR.CAVITY>
1.47871

>  <SCORE.RESTR.norm>
0.0295742

>  <SCORE.SYSTEM>
1.56655

>  <SCORE.SYSTEM.CONST>
0

>  <SCORE.SYSTEM.DIHEDRAL>
3.63367

>  <SCORE.SYSTEM.VDW>
-0.250284

>  <SCORE.SYSTEM.norm>
0.031331

>  <SCORE.heavy>
50

>  <SCORE.norm>
0.148722

>  <TITLE>
    Ritonavir_D                                                           

$$$$
Ritonavir.pdb
  RxDock  02242101363D
librxdock.so/0.1.0
 54 57  0  0  0  0  0  0  0  0999 V2000
  -44.9987    1.6283   21.1145 S   0  0  0  0  0  0
  -47.2851   -3.1448   16.0869 S   0  0  0  0  0  0
  -51.2914   -8.4397   19.4107 O   0  0  0  0  0  0
  -49.7876   -3.4399   18.7033 O   0  0  0  0  0  0
  -50.1399   -4.6430   16.5360 O   0  0  0  0  0  0
  -52.3349   -4.3372   16.9165 O   0  0  0  0  0  0
  -47.5494   -0.9381   19.6952 O   0  0  0  0  0  0
  -50.3175   -4.4411   20.6775 N   0  0  0  0  0  0
  -51.3439   -6.3242   17.4746 N   0  0  0  0  0  0
  -49.7978   -0.9792   19.7841 N   0  0  0  0  0  0
  -48.6849    0.5698   18.4572 N   0  0  0  0  0  0
  -45.2229    0.3433   18.8919 N   0  0  0  0  0  0
  -47.1057   -2.9804   13.5241 N   0  0  0  0  0  0
  -50.4661   -5.7709   20.0654 C   0  0  0  0  0  0
  -51.9037   -6.2566   20.3449 C   0  0  0  0  0  0
  -52.3167   -7.4326   19.4345 C   0  0  0  0  0  0
  -52.5823   -6.9114   18.0081 C   0  0  0  0  0  0
  -49.4307   -6.7768   20.6153 C   0  0  0  0  0  0
  -53.0552   -8.0582   17.0890 C   0  0  0  0  0  0
  -49.7798   -2.1185   20.7135 C   0  0  0  0  0  0
  -50.8709   -1.9888   21.7983 C   0  0  0  0  0  0
  -49.9626   -3.3934   19.9143 C   0  0  0  0  0  0
  -48.4220   -7.2823   19.5935 C   0  0  0  0  0  0
  -53.9426   -7.6277   15.9301 C   0  0  0  0  0  0
  -50.2846   -2.3200   23.1805 C   0  0  0  0  0  0
  -51.4191   -0.5522   21.8521 C   0  0  0  0  0  0
  -48.8555   -7.8600   18.4195 C   0  0  0  0  0  0
  -47.0704   -7.1680   19.8338 C   0  0  0  0  0  0
  -51.3493   -5.0695   16.9802 C   0  0  0  0  0  0
  -54.9646   -8.4447   15.4986 C   0  0  0  0  0  0
  -53.7300   -6.4190   15.3016 C   0  0  0  0  0  0
  -48.6325   -0.4668   19.3297 C   0  0  0  0  0  0
  -47.9468   -8.3198   17.4948 C   0  0  0  0  0  0
  -46.1592   -7.6260   18.9094 C   0  0  0  0  0  0
  -55.7672   -8.0581   14.4498 C   0  0  0  0  0  0
  -54.5316   -6.0305   14.2532 C   0  0  0  0  0  0
  -46.5970   -8.2025   17.7386 C   0  0  0  0  0  0
  -55.5514   -6.8504   13.8272 C   0  0  0  0  0  0
  -47.4282    1.1329   17.9362 C   0  0  0  0  0  0
  -49.9596    1.1624   18.0071 C   0  0  0  0  0  0
  -50.1383   -3.4790   15.6912 C   0  0  0  0  0  0
  -46.3572    1.1360   19.0088 C   0  0  0  0  0  0
  -48.7565   -3.2743   15.1042 C   0  0  0  0  0  0
  -44.4044    0.4769   19.8983 C   0  0  0  0  0  0
  -46.4270    1.8786   20.0959 C   0  0  0  0  0  0
  -43.0964   -0.2772   20.0134 C   0  0  0  0  0  0
  -42.9111   -1.2859   18.8703 C   0  0  0  0  0  0
  -43.0013   -1.0304   21.3475 C   0  0  0  0  0  0
  -48.4489   -3.1642   13.8260 C   0  0  0  0  0  0
  -46.3539   -2.9471   14.5875 C   0  0  0  0  0  0
  -51.1526   -8.8421   20.3216 H   0  0  0  0  0  0
  -50.4585   -4.3444   21.5414 H   0  0  0  0  0  0
  -50.5997   -6.7970   17.4880 H   0  0  0  0  0  0
  -50.5672   -0.6548   19.5148 H   0  0  0  0  0  0
  1 44  1  0  0  0
  1 45  1  0  0  0
  2 43  1  0  0  0
  2 50  1  0  0  0
  3 16  1  0  0  0
  3 51  1  0  0  0
  4 22  2  0  0  0
  5 29  1  0  0  0
  5 41  1  0  0  0
  6 29  2  0  0  0
  7 32  2  0  0  0
  8 14  1  0  0  0
  8 22  1  0  0  0
  8 52  1  0  0  0
  9 17  1  0  0  0
  9 29  1  0  0  0
  9 53  1  0  0  0
 10 20  1  0  0  0
 10 32  1  0  0  0
 10 54  1  0  0  0
 11 32  1  0  0  0
 11 39  1  0  0  0
 11 40  1  0  0  0
 12 42  1  0  0  0
 12 44  2  0  0  0
 13 49  1  0  0  0
 13 50  2  0  0  0
 14 15  1  0  0  0
 14 18  1  0  0  0
 15 16  1  0  0  0
 16 17  1  0  0  0
 17 19  1  0  0  0
 18 23  1  0  0  0
 19 24  1  0  0  0
 20 21  1  0  0  0
 20 22  1  0  0  0
 21 25  1  0  0  0
 21 26  1  0  0  0
 23 27  2  0  0  0
 23 28  1  0  0  0
 24 30  2  0  0  0
 24 31  1  0  0  0
 27 33  1  0  0  0
 28 34  2  0  0  0
 30 35  1  0  0  0
 31 36  2  0  0  0
 33 37  2  0  0  0
 34 37  1  0  0  0
 35 38  2  0  0  0
 36 38  1  0  0  0
 39 42  1  0  0  0
 41 43  1  0  0  0
 42 45  2  0  0  0
 43 49  2  0  0  0
 44 46  1  0  0  0
 46 47  1  0  0  0
 46 48  1  0  0  0
M  END
>  <CHROM.0>
-17.04493314,67.40069611,-51.11441019

>  <CHROM.1>
63.06591550,-15.83037967,-170.74388750,-122.44802041,-126.90233178,141.34924466
-36.91197380,163.67725158,-114.98193255,47.70145901,-60.36169564,-87.24374506
-54.71650856,-145.01293917,-134.59785011,17.41230223,114.02315868,-54.86893747
175.12555843,-49.20916937,-3.68602563,18.30555409,0.12664983,0.84695371,1.80999490

>  <HEADER>
                                                                          

>  <MASTER>
        0    0    0    0    0    0    0    0   98    0   98    0          

>  <Name>
Ritonavir.pdb

>  <RI>
-7.06522e+08

>  <Rbt.Current_Directory>
/root/miniconda3/envs/rdock/share/rxdock-2013.1.1_148c5bd1-0/data/ligands/prepped_ligands/Ritonavir

>  <Rbt.Executable>
rbdock/0.1.0

>  <Rbt.Library>
librxdock.so/0.1.0

>  <Rbt.Parameter_File>
/root/miniconda3/envs/rdock/share/rxdock-2013.1.1_148c5bd1-0/data/scripts/dock.prm

>  <Rbt.Receptor>
def.prm

>  <SCORE>
6.50568

>  <SCORE.INTER>
1.18131

>  <SCORE.INTER.CONST>
1

>  <SCORE.INTER.POLAR>
0

>  <SCORE.INTER.REPUL>
0.171777

>  <SCORE.INTER.ROT>
18

>  <SCORE.INTER.VDW>
-23.0776

>  <SCORE.INTER.norm>
0.0236263

>  <SCORE.INTRA>
0.211785

>  <SCORE.INTRA.DIHEDRAL>
-2.58454

>  <SCORE.INTRA.DIHEDRAL.0>
28.8748

>  <SCORE.INTRA.POLAR>
0

>  <SCORE.INTRA.POLAR.0>
0

>  <SCORE.INTRA.REPUL>
0

>  <SCORE.INTRA.REPUL.0>
0

>  <SCORE.INTRA.VDW>
1.50406

>  <SCORE.INTRA.VDW.0>
-1.74536

>  <SCORE.INTRA.norm>
0.0042357

>  <SCORE.RESTR>
3.99737

>  <SCORE.RESTR.CAVITY>
3.99737

>  <SCORE.RESTR.norm>
0.0799473

>  <SCORE.SYSTEM>
1.11521

>  <SCORE.SYSTEM.CONST>
0

>  <SCORE.SYSTEM.DIHEDRAL>
3.36978

>  <SCORE.SYSTEM.POLAR>
-0.0166583

>  <SCORE.SYSTEM.VDW>
-0.513039

>  <SCORE.SYSTEM.norm>
0.0223043

>  <SCORE.heavy>
50

>  <SCORE.norm>
0.130114

>  <TITLE>
    Ritonavir_D                                                           

$$$$
Ritonavir.pdb
  RxDock  02242101363D
librxdock.so/0.1.0
 54 57  0  0  0  0  0  0  0  0999 V2000
  -43.2242   -1.2055   21.4225 S   0  0  0  0  0  0
  -50.4650   -4.4072   20.3699 S   0  0  0  0  0  0
  -53.1286   -4.2867   18.0640 O   0  0  0  0  0  0
  -52.5577   -0.1625   18.4317 O   0  0  0  0  0  0
  -48.9799   -7.3950   18.5212 O   0  0  0  0  0  0
  -50.1304   -8.1505   16.7430 O   0  0  0  0  0  0
  -48.3150    1.0346   21.0305 O   0  0  0  0  0  0
  -50.6543   -1.2592   17.8357 N   0  0  0  0  0  0
  -50.7215   -6.1712   17.7301 N   0  0  0  0  0  0
  -49.8086   -0.5282   20.4045 N   0  0  0  0  0  0
  -48.1418   -1.0214   21.9464 N   0  0  0  0  0  0
  -45.6907   -1.2639   20.6777 N   0  0  0  0  0  0
  -50.4027   -6.0076   22.3854 N   0  0  0  0  0  0
  -51.3308   -2.0528   16.7975 C   0  0  0  0  0  0
  -51.0168   -3.5395   17.0662 C   0  0  0  0  0  0
  -52.2626   -4.4401   16.9272 C   0  0  0  0  0  0
  -51.8222   -5.9111   16.7898 C   0  0  0  0  0  0
  -50.8809   -1.6454   15.3770 C   0  0  0  0  0  0
  -53.0010   -6.8622   17.0890 C   0  0  0  0  0  0
  -50.4922    0.4239   19.5166 C   0  0  0  0  0  0
  -49.4892    1.3218   18.7603 C   0  0  0  0  0  0
  -51.3544   -0.3583   18.5458 C   0  0  0  0  0  0
  -49.3749   -1.6507   15.1548 C   0  0  0  0  0  0
  -53.9976   -7.0270   15.9507 C   0  0  0  0  0  0
  -50.2406    2.2816   17.8234 C   0  0  0  0  0  0
  -48.6680    2.1725   19.7449 C   0  0  0  0  0  0
  -48.6384   -2.7831   15.4286 C   0  0  0  0  0  0
  -48.7371   -0.5256   14.6804 C   0  0  0  0  0  0
  -49.9713   -7.2844   17.6009 C   0  0  0  0  0  0
  -54.2520   -5.9781   15.0946 C   0  0  0  0  0  0
  -54.6550   -8.2252   15.7685 C   0  0  0  0  0  0
  -48.7360   -0.1245   21.1211 C   0  0  0  0  0  0
  -47.2771   -2.7907   15.2310 C   0  0  0  0  0  0
  -47.3753   -0.5313   14.4805 C   0  0  0  0  0  0
  -55.1540   -6.1244   14.0656 C   0  0  0  0  0  0
  -55.5567   -8.3737   14.7402 C   0  0  0  0  0  0
  -46.6439   -1.6645   14.7557 C   0  0  0  0  0  0
  -55.8061   -7.3226   13.8877 C   0  0  0  0  0  0
  -46.9822   -0.5989   22.7490 C   0  0  0  0  0  0
  -48.6124   -2.4147   22.0720 C   0  0  0  0  0  0
  -48.5275   -6.1730   19.1300 C   0  0  0  0  0  0
  -45.6881   -0.8894   22.0151 C   0  0  0  0  0  0
  -49.4106   -5.8330   20.3134 C   0  0  0  0  0  0
  -44.4922   -1.4652   20.2048 C   0  0  0  0  0  0
  -44.5015   -0.8022   22.5829 C   0  0  0  0  0  0
  -44.2208   -1.8827   18.7748 C   0  0  0  0  0  0
  -42.8352   -1.4261   18.2950 C   0  0  0  0  0  0
  -45.2785   -1.3168   17.8172 C   0  0  0  0  0  0
  -49.5250   -6.5157   21.4365 C   0  0  0  0  0  0
  -50.9826   -4.9089   21.9932 C   0  0  0  0  0  0
  -53.5192   -3.3611   18.1041 H   0  0  0  0  0  0
  -49.7938   -1.3790   17.9796 H   0  0  0  0  0  0
  -50.5541   -5.5902   18.3719 H   0  0  0  0  0  0
  -50.1169   -1.3463   20.4784 H   0  0  0  0  0  0
  1 44  1  0  0  0
  1 45  1  0  0  0
  2 43  1  0  0  0
  2 50  1  0  0  0
  3 16  1  0  0  0
  3 51  1  0  0  0
  4 22  2  0  0  0
  5 29  1  0  0  0
  5 41  1  0  0  0
  6 29  2  0  0  0
  7 32  2  0  0  0
  8 14  1  0  0  0
  8 22  1  0  0  0
  8 52  1  0  0  0
  9 17  1  0  0  0
  9 29  1  0  0  0
  9 53  1  0  0  0
 10 20  1  0  0  0
 10 32  1  0  0  0
 10 54  1  0  0  0
 11 32  1  0  0  0
 11 39  1  0  0  0
 11 40  1  0  0  0
 12 42  1  0  0  0
 12 44  2  0  0  0
 13 49  1  0  0  0
 13 50  2  0  0  0
 14 15  1  0  0  0
 14 18  1  0  0  0
 15 16  1  0  0  0
 16 17  1  0  0  0
 17 19  1  0  0  0
 18 23  1  0  0  0
 19 24  1  0  0  0
 20 21  1  0  0  0
 20 22  1  0  0  0
 21 25  1  0  0  0
 21 26  1  0  0  0
 23 27  2  0  0  0
 23 28  1  0  0  0
 24 30  2  0  0  0
 24 31  1  0  0  0
 27 33  1  0  0  0
 28 34  2  0  0  0
 30 35  1  0  0  0
 31 36  2  0  0  0
 33 37  2  0  0  0
 34 37  1  0  0  0
 35 38  2  0  0  0
 36 38  1  0  0  0
 39 42  1  0  0  0
 41 43  1  0  0  0
 42 45  2  0  0  0
 43 49  2  0  0  0
 44 46  1  0  0  0
 46 47  1  0  0  0
 46 48  1  0  0  0
M  END
>  <CHROM.0>
109.69272615,-179.96017916,168.59263256

>  <CHROM.1>
65.92394463,156.68815250,85.52433371,-128.00059262,-165.42743631,40.54916171
-92.38554241,135.99566658,52.95424143,-75.08429131,-80.40506414,-160.91911148
54.48260403,-32.51204037,178.85545866,123.92049517,11.01685802,-114.29234436
-27.30296680,-49.45468244,-3.04120579,18.47190017,-0.28946076,0.73865938
2.61709124

>  <HEADER>
                                                                          

>  <MASTER>
        0    0    0    0    0    0    0    0   98    0   98    0          

>  <Name>
Ritonavir.pdb

>  <RI>
-7.06522e+08

>  <Rbt.Current_Directory>
/root/miniconda3/envs/rdock/share/rxdock-2013.1.1_148c5bd1-0/data/ligands/prepped_ligands/Ritonavir

>  <Rbt.Executable>
rbdock/0.1.0

>  <Rbt.Library>
librxdock.so/0.1.0

>  <Rbt.Parameter_File>
/root/miniconda3/envs/rdock/share/rxdock-2013.1.1_148c5bd1-0/data/scripts/dock.prm

>  <Rbt.Receptor>
def.prm

>  <SCORE>
18.87

>  <SCORE.INTER>
-7.29479

>  <SCORE.INTER.CONST>
1

>  <SCORE.INTER.POLAR>
-1.11433

>  <SCORE.INTER.REPUL>
0.0019484

>  <SCORE.INTER.ROT>
18

>  <SCORE.INTER.VDW>
-26.9158

>  <SCORE.INTER.norm>
-0.145896

>  <SCORE.INTRA>
22.5347

>  <SCORE.INTRA.DIHEDRAL>
-1.00851

>  <SCORE.INTRA.DIHEDRAL.0>
28.8748

>  <SCORE.INTRA.POLAR>
0

>  <SCORE.INTRA.POLAR.0>
0

>  <SCORE.INTRA.REPUL>
0

>  <SCORE.INTRA.REPUL.0>
0

>  <SCORE.INTRA.VDW>
23.0389

>  <SCORE.INTRA.VDW.0>
-1.74536

>  <SCORE.INTRA.norm>
0.450694

>  <SCORE.RESTR>
2.17825

>  <SCORE.RESTR.CAVITY>
2.17825

>  <SCORE.RESTR.norm>
0.0435649

>  <SCORE.SYSTEM>
1.45184

>  <SCORE.SYSTEM.CONST>
0

>  <SCORE.SYSTEM.DIHEDRAL>
3.65734

>  <SCORE.SYSTEM.VDW>
-0.376835

>  <SCORE.SYSTEM.norm>
0.0290367

>  <SCORE.heavy>
50

>  <SCORE.norm>
0.3774

>  <TITLE>
    Ritonavir_D                                                           

$$$$
Ritonavir.pdb
  RxDock  02242101373D
librxdock.so/0.1.0
 54 57  0  0  0  0  0  0  0  0999 V2000
  -44.1813   -1.6250   19.3712 S   0  0  0  0  0  0
  -54.7607   -8.0900   15.2771 S   0  0  0  0  0  0
  -52.1120   -3.9724   15.9079 O   0  0  0  0  0  0
  -50.3125    0.4489   16.0733 O   0  0  0  0  0  0
  -52.4778   -7.3223   18.5597 O   0  0  0  0  0  0
  -51.0395   -6.0098   19.6846 O   0  0  0  0  0  0
  -46.0350    0.4510   15.2971 O   0  0  0  0  0  0
  -48.9432   -1.3195   16.4964 N   0  0  0  0  0  0
  -51.2460   -5.7966   17.4144 N   0  0  0  0  0  0
  -47.4829   -1.0611   14.4714 N   0  0  0  0  0  0
  -45.2696   -1.6327   14.8873 N   0  0  0  0  0  0
  -43.4007   -0.0264   17.5067 N   0  0  0  0  0  0
  -55.3305   -5.6670   15.9340 N   0  0  0  0  0  0
  -49.6536   -1.6881   17.7312 C   0  0  0  0  0  0
  -51.0097   -2.3022   17.3253 C   0  0  0  0  0  0
  -50.8479   -3.5715   16.4622 C   0  0  0  0  0  0
  -50.2610   -4.7083   17.3226 C   0  0  0  0  0  0
  -49.8587   -0.4725   18.6621 C   0  0  0  0  0  0
  -48.9511   -5.2397   16.7018 C   0  0  0  0  0  0
  -48.5791   -0.0813   14.4916 C   0  0  0  0  0  0
  -49.4892   -0.2159   13.2515 C   0  0  0  0  0  0
  -49.3739   -0.2757   15.7676 C   0  0  0  0  0  0
  -48.5843    0.0828   19.2824 C   0  0  0  0  0  0
  -48.4036   -6.5058   17.3446 C   0  0  0  0  0  0
  -50.5194   -1.3360   13.4705 C   0  0  0  0  0  0
  -50.2617    1.0902   12.9971 C   0  0  0  0  0  0
  -47.8765   -0.6658   20.1981 C   0  0  0  0  0  0
  -48.1295    1.3359   18.9352 C   0  0  0  0  0  0
  -51.5426   -6.3401   18.6125 C   0  0  0  0  0  0
  -47.2671   -6.4533   18.1215 C   0  0  0  0  0  0
  -49.0382   -7.7148   17.1530 C   0  0  0  0  0  0
  -46.2529   -0.6991   14.8990 C   0  0  0  0  0  0
  -46.7256   -0.1664   20.7621 C   0  0  0  0  0  0
  -46.9774    1.8372   19.4972 C   0  0  0  0  0  0
  -46.7693   -7.5973   18.7024 C   0  0  0  0  0  0
  -48.5425   -8.8594   17.7332 C   0  0  0  0  0  0
  -46.2742    1.0860   20.4115 C   0  0  0  0  0  0
  -47.4074   -8.8007   18.5090 C   0  0  0  0  0  0
  -43.9261   -1.2652   15.3644 C   0  0  0  0  0  0
  -45.4924   -3.0116   14.4104 C   0  0  0  0  0  0
  -52.6720   -7.9583   17.2844 C   0  0  0  0  0  0
  -43.9056   -1.1560   16.8761 C   0  0  0  0  0  0
  -53.8157   -7.2906   16.5481 C   0  0  0  0  0  0
  -43.4692   -0.0977   18.8070 C   0  0  0  0  0  0
  -44.3606   -2.1018   17.6739 C   0  0  0  0  0  0
  -42.9844    1.0023   19.7278 C   0  0  0  0  0  0
  -42.8509    2.3468   18.9978 C   0  0  0  0  0  0
  -41.6272    0.6505   20.3524 C   0  0  0  0  0  0
  -54.2642   -6.0634   16.7308 C   0  0  0  0  0  0
  -55.7192   -6.6035   15.1160 C   0  0  0  0  0  0
  -52.4431   -3.3055   15.2321 H   0  0  0  0  0  0
  -48.2433   -1.7901   16.2431 H   0  0  0  0  0  0
  -51.6435   -6.0836   16.6816 H   0  0  0  0  0  0
  -47.6423   -1.8807   14.2018 H   0  0  0  0  0  0
  1 44  1  0  0  0
  1 45  1  0  0  0
  2 43  1  0  0  0
  2 50  1  0  0  0
  3 16  1  0  0  0
  3 51  1  0  0  0
  4 22  2  0  0  0
  5 29  1  0  0  0
  5 41  1  0  0  0
  6 29  2  0  0  0
  7 32  2  0  0  0
  8 14  1  0  0  0
  8 22  1  0  0  0
  8 52  1  0  0  0
  9 17  1  0  0  0
  9 29  1  0  0  0
  9 53  1  0  0  0
 10 20  1  0  0  0
 10 32  1  0  0  0
 10 54  1  0  0  0
 11 32  1  0  0  0
 11 39  1  0  0  0
 11 40  1  0  0  0
 12 42  1  0  0  0
 12 44  2  0  0  0
 13 49  1  0  0  0
 13 50  2  0  0  0
 14 15  1  0  0  0
 14 18  1  0  0  0
 15 16  1  0  0  0
 16 17  1  0  0  0
 17 19  1  0  0  0
 18 23  1  0  0  0
 19 24  1  0  0  0
 20 21  1  0  0  0
 20 22  1  0  0  0
 21 25  1  0  0  0
 21 26  1  0  0  0
 23 27  2  0  0  0
 23 28  1  0  0  0
 24 30  2  0  0  0
 24 31  1  0  0  0
 27 33  1  0  0  0
 28 34  2  0  0  0
 30 35  1  0  0  0
 31 36  2  0  0  0
 33 37  2  0  0  0
 34 37  1  0  0  0
 35 38  2  0  0  0
 36 38  1  0  0  0
 39 42  1  0  0  0
 41 43  1  0  0  0
 42 45  2  0  0  0
 43 49  2  0  0  0
 44 46  1  0  0  0
 46 47  1  0  0  0
 46 48  1  0  0  0
M  END
>  <CHROM.0>
-55.57981157,62.84417158,-77.19808139

>  <CHROM.1>
67.57190157,-159.18667177,-94.69078630,71.31956373,-131.86093518,141.37159894
74.33964846,60.78677789,-68.33678904,-169.63399969,-5.64151227,-50.38960335
-66.95062815,-108.43490912,82.66007274,176.64681268,-128.56545607,-156.51607541
-161.45090221,-48.59911125,-2.91159900,17.15288723,-0.57257148,0.47115712
2.74260758

>  <HEADER>
                                                                          

>  <MASTER>
        0    0    0    0    0    0    0    0   98    0   98    0          

>  <Name>
Ritonavir.pdb

>  <RI>
-7.06522e+08

>  <Rbt.Current_Directory>
/root/miniconda3/envs/rdock/share/rxdock-2013.1.1_148c5bd1-0/data/ligands/prepped_ligands/Ritonavir

>  <Rbt.Executable>
rbdock/0.1.0

>  <Rbt.Library>
librxdock.so/0.1.0

>  <Rbt.Parameter_File>
/root/miniconda3/envs/rdock/share/rxdock-2013.1.1_148c5bd1-0/data/scripts/dock.prm

>  <Rbt.Receptor>
def.prm

>  <SCORE>
-15.5178

>  <SCORE.INTER>
-13.6442

>  <SCORE.INTER.CONST>
1

>  <SCORE.INTER.POLAR>
-1.43279

>  <SCORE.INTER.REPUL>
0

>  <SCORE.INTER.ROT>
18

>  <SCORE.INTER.VDW>
-32.1727

>  <SCORE.INTER.norm>
-0.272884

>  <SCORE.INTRA>
-1.28619

>  <SCORE.INTRA.DIHEDRAL>
-0.463625

>  <SCORE.INTRA.DIHEDRAL.0>
28.8748

>  <SCORE.INTRA.POLAR>
0

>  <SCORE.INTRA.POLAR.0>
0

>  <SCORE.INTRA.REPUL>
0

>  <SCORE.INTRA.REPUL.0>
0

>  <SCORE.INTRA.VDW>
-1.05438

>  <SCORE.INTRA.VDW.0>
-1.74536

>  <SCORE.INTRA.norm>
-0.0257238

>  <SCORE.RESTR>
0.0145839

>  <SCORE.RESTR.CAVITY>
0.0145839

>  <SCORE.RESTR.norm>
0.000291677

>  <SCORE.SYSTEM>
-0.602003

>  <SCORE.SYSTEM.CONST>
0

>  <SCORE.SYSTEM.DIHEDRAL>
0.778756

>  <SCORE.SYSTEM.VDW>
-0.99138

>  <SCORE.SYSTEM.norm>
-0.0120401

>  <SCORE.heavy>
50

>  <SCORE.norm>
-0.310356

>  <TITLE>
    Ritonavir_D                                                           

$$$$
