Ritonavir.pdb
  RxDock  02242112073D
librxdock.so/0.1.0
 54 57  0  0  0  0  0  0  0  0999 V2000
  -43.1544   -2.0075   19.4192 S   0  0  0  0  0  0
  -54.4582   -8.2919   15.3284 S   0  0  0  0  0  0
  -49.5583   -4.5194   21.5330 O   0  0  0  0  0  0
  -47.5592   -2.8855   17.8308 O   0  0  0  0  0  0
  -52.7608   -7.8629   17.9436 O   0  0  0  0  0  0
  -51.7032   -8.7231   19.7319 O   0  0  0  0  0  0
  -46.5072   -0.4329   16.5566 O   0  0  0  0  0  0
  -49.7914   -2.4410   17.8095 N   0  0  0  0  0  0
  -51.8957   -6.4536   19.4999 N   0  0  0  0  0  0
  -47.1843   -2.1684   15.2937 N   0  0  0  0  0  0
  -44.9718   -1.4596   15.2588 N   0  0  0  0  0  0
  -43.2314    0.1810   18.0605 N   0  0  0  0  0  0
  -55.5273   -6.0314   14.7168 N   0  0  0  0  0  0
  -49.9627   -2.7797   19.2313 C   0  0  0  0  0  0
  -50.5366   -4.2101   19.3057 C   0  0  0  0  0  0
  -50.7581   -4.6821   20.7584 C   0  0  0  0  0  0
  -51.1940   -6.1609   20.7589 C   0  0  0  0  0  0
  -50.8907   -1.7782   19.9539 C   0  0  0  0  0  0
  -49.9688   -7.0892   20.9027 C   0  0  0  0  0  0
  -48.5582   -2.0560   15.8056 C   0  0  0  0  0  0
  -49.5523   -2.8824   14.9613 C   0  0  0  0  0  0
  -48.5708   -2.5104   17.2517 C   0  0  0  0  0  0
  -50.8599   -0.3606   19.4001 C   0  0  0  0  0  0
  -49.2417   -7.3985   19.6020 C   0  0  0  0  0  0
  -49.3010   -2.6427   13.4635 C   0  0  0  0  0  0
  -49.3794   -4.3871   15.2321 C   0  0  0  0  0  0
  -49.6587    0.2986   19.2503 C   0  0  0  0  0  0
  -52.0300    0.2742   19.0460 C   0  0  0  0  0  0
  -52.0861   -7.7316   19.1139 C   0  0  0  0  0  0
  -48.3460   -8.4434   19.5400 C   0  0  0  0  0  0
  -49.4711   -6.6349   18.4772 C   0  0  0  0  0  0
  -46.2332   -1.3152   15.7348 C   0  0  0  0  0  0
  -49.6273    1.5804   18.7522 C   0  0  0  0  0  0
  -52.0011    1.5563   18.5459 C   0  0  0  0  0  0
  -47.6862   -8.7239   18.3654 C   0  0  0  0  0  0
  -48.8129   -6.9139   17.3018 C   0  0  0  0  0  0
  -50.7991    2.2106   18.3985 C   0  0  0  0  0  0
  -47.9200   -7.9596   17.2456 C   0  0  0  0  0  0
  -43.9162   -0.5521   15.7380 C   0  0  0  0  0  0
  -44.6120   -2.4956   14.2710 C   0  0  0  0  0  0
  -52.6386   -6.7798   17.0052 C   0  0  0  0  0  0
  -43.5780   -0.8415   17.1870 C   0  0  0  0  0  0
  -53.8072   -6.8033   16.0410 C   0  0  0  0  0  0
  -42.9817   -0.2454   19.2674 C   0  0  0  0  0  0
  -43.5956   -2.0543   17.7036 C   0  0  0  0  0  0
  -42.5807    0.6679   20.4066 C   0  0  0  0  0  0
  -43.7456    1.5544   20.8710 C   0  0  0  0  0  0
  -41.4073    1.5744   20.0096 C   0  0  0  0  0  0
  -54.4903   -5.7638   15.6011 C   0  0  0  0  0  0
  -55.6537   -7.3031   14.4639 C   0  0  0  0  0  0
  -49.7600   -4.4879   22.5175 H   0  0  0  0  0  0
  -50.4913   -2.1910   17.3372 H   0  0  0  0  0  0
  -52.1951   -5.7872   19.0061 H   0  0  0  0  0  0
  -46.9883   -2.8037   14.7213 H   0  0  0  0  0  0
  1 44  1  0  0  0
  1 45  1  0  0  0
  2 43  1  0  0  0
  2 50  1  0  0  0
  3 16  1  0  0  0
  3 51  1  0  0  0
  4 22  2  0  0  0
  5 29  1  0  0  0
  5 41  1  0  0  0
  6 29  2  0  0  0
  7 32  2  0  0  0
  8 14  1  0  0  0
  8 22  1  0  0  0
  8 52  1  0  0  0
  9 17  1  0  0  0
  9 29  1  0  0  0
  9 53  1  0  0  0
 10 20  1  0  0  0
 10 32  1  0  0  0
 10 54  1  0  0  0
 11 32  1  0  0  0
 11 39  1  0  0  0
 11 40  1  0  0  0
 12 42  1  0  0  0
 12 44  2  0  0  0
 13 49  1  0  0  0
 13 50  2  0  0  0
 14 15  1  0  0  0
 14 18  1  0  0  0
 15 16  1  0  0  0
 16 17  1  0  0  0
 17 19  1  0  0  0
 18 23  1  0  0  0
 19 24  1  0  0  0
 20 21  1  0  0  0
 20 22  1  0  0  0
 21 25  1  0  0  0
 21 26  1  0  0  0
 23 27  2  0  0  0
 23 28  1  0  0  0
 24 30  2  0  0  0
 24 31  1  0  0  0
 27 33  1  0  0  0
 28 34  2  0  0  0
 30 35  1  0  0  0
 31 36  2  0  0  0
 33 37  2  0  0  0
 34 37  1  0  0  0
 35 38  2  0  0  0
 36 38  1  0  0  0
 39 42  1  0  0  0
 41 43  1  0  0  0
 42 45  2  0  0  0
 43 49  2  0  0  0
 44 46  1  0  0  0
 46 47  1  0  0  0
 46 48  1  0  0  0
M  END
>  <CHROM.0>
-173.24981340,66.89253486,-175.49450422

>  <CHROM.1>
158.78223273,-152.21956218,-158.35933432,-101.13218158,163.78962507,166.88905765
69.96765622,179.85756326,-30.48378285,-52.67617874,-150.15648240,36.37324796
-52.61258391,-164.64550364,-45.86849986,0.50413353,-144.84618111,-41.56465307
-110.02484253,-48.87505112,-3.54976263,17.85202149,-0.64433600,0.26284999
2.97151404

>  <HEADER>
                                                                          

>  <MASTER>
        0    0    0    0    0    0    0    0   98    0   98    0          

>  <Name>
Ritonavir.pdb

>  <RI>
-1.04723e+09

>  <Rbt.Current_Directory>
/root/miniconda3/envs/rdock/share/rxdock-2013.1.1_148c5bd1-0/data/ligands/prepped_ligands/Ritonavir

>  <Rbt.Executable>
rbdock/0.1.0

>  <Rbt.Library>
librxdock.so/0.1.0

>  <Rbt.Parameter_File>
/root/miniconda3/envs/rdock/share/rxdock-2013.1.1_148c5bd1-0/data/scripts/dock.prm

>  <Rbt.Receptor>
def.prm

>  <SCORE>
-3.54045

>  <SCORE.INTER>
-10.2592

>  <SCORE.INTER.CONST>
1

>  <SCORE.INTER.POLAR>
-0.383702

>  <SCORE.INTER.REPUL>
0

>  <SCORE.INTER.ROT>
18

>  <SCORE.INTER.VDW>
-32.3546

>  <SCORE.INTER.norm>
-0.205183

>  <SCORE.INTRA>
7.45545

>  <SCORE.INTRA.DIHEDRAL>
-1.45911

>  <SCORE.INTRA.DIHEDRAL.0>
28.8748

>  <SCORE.INTRA.POLAR>
0

>  <SCORE.INTRA.POLAR.0>
0

>  <SCORE.INTRA.REPUL>
0

>  <SCORE.INTRA.REPUL.0>
0

>  <SCORE.INTRA.VDW>
8.18501

>  <SCORE.INTRA.VDW.0>
-1.74536

>  <SCORE.INTRA.norm>
0.149109

>  <SCORE.RESTR>
0.173649

>  <SCORE.RESTR.CAVITY>
0.173649

>  <SCORE.RESTR.norm>
0.00347299

>  <SCORE.SYSTEM>
-0.910401

>  <SCORE.SYSTEM.CONST>
0

>  <SCORE.SYSTEM.DIHEDRAL>
0.384687

>  <SCORE.SYSTEM.POLAR>
-0.0113958

>  <SCORE.SYSTEM.VDW>
-1.064

>  <SCORE.SYSTEM.norm>
-0.018208

>  <SCORE.heavy>
50

>  <SCORE.norm>
-0.070809

>  <TITLE>
    Ritonavir_D                                                           

$$$$
Ritonavir.pdb
  RxDock  02242112083D
librxdock.so/0.1.0
 54 57  0  0  0  0  0  0  0  0999 V2000
  -41.4290    0.4614   20.6856 S   0  0  0  0  0  0
  -54.4077   -7.9692   14.6949 S   0  0  0  0  0  0
  -53.2138   -2.7873   16.6362 O   0  0  0  0  0  0
  -48.7895   -3.9237   17.4227 O   0  0  0  0  0  0
  -56.1498   -5.5355   14.8743 O   0  0  0  0  0  0
  -54.1367   -4.7602   14.2395 O   0  0  0  0  0  0
  -45.5845   -2.4531   18.6294 O   0  0  0  0  0  0
  -49.7156   -1.9127   16.8946 N   0  0  0  0  0  0
  -54.4565   -5.4875   16.3867 N   0  0  0  0  0  0
  -47.2986   -1.0495   18.2335 N   0  0  0  0  0  0
  -45.1233   -0.4663   17.6619 N   0  0  0  0  0  0
  -42.9901    1.3044   18.8164 N   0  0  0  0  0  0
  -54.9285   -9.7668   16.4626 N   0  0  0  0  0  0
  -50.4988   -2.4662   15.7786 C   0  0  0  0  0  0
  -51.0387   -3.8418   16.2228 C   0  0  0  0  0  0
  -52.5720   -3.9475   16.0812 C   0  0  0  0  0  0
  -53.0687   -5.2211   16.7941 C   0  0  0  0  0  0
  -49.6541   -2.5981   14.4920 C   0  0  0  0  0  0
  -52.1771   -6.4290   16.4341 C   0  0  0  0  0  0
  -48.2650   -2.0111   18.7843 C   0  0  0  0  0  0
  -49.3079   -1.3193   19.6887 C   0  0  0  0  0  0
  -48.9409   -2.7268   17.6315 C   0  0  0  0  0  0
  -49.4190   -1.2941   13.7425 C   0  0  0  0  0  0
  -51.6006   -7.1792   17.6261 C   0  0  0  0  0  0
  -48.7669   -1.1981   21.1228 C   0  0  0  0  0  0
  -49.6152    0.1001   19.1806 C   0  0  0  0  0  0
  -48.1574   -0.9736   13.2890 C   0  0  0  0  0  0
  -50.4627   -0.4250   13.5128 C   0  0  0  0  0  0
  -54.8512   -5.2294   15.1232 C   0  0  0  0  0  0
  -50.6235   -8.1323   17.4389 C   0  0  0  0  0  0
  -52.0523   -6.9132   18.9013 C   0  0  0  0  0  0
  -45.9852   -1.3668   18.1957 C   0  0  0  0  0  0
  -47.9409    0.2047   12.6132 C   0  0  0  0  0  0
  -50.2489    0.7541   12.8356 C   0  0  0  0  0  0
  -50.1019   -8.8130   18.5151 C   0  0  0  0  0  0
  -51.5318   -7.5923   19.9786 C   0  0  0  0  0  0
  -48.9872    1.0699   12.3850 C   0  0  0  0  0  0
  -50.5554   -8.5426   19.7855 C   0  0  0  0  0  0
  -43.6903   -0.7977   17.5951 C   0  0  0  0  0  0
  -45.5661    0.8428   17.1435 C   0  0  0  0  0  0
  -56.7378   -6.5611   15.6934 C   0  0  0  0  0  0
  -42.9223   -0.0765   18.6849 C   0  0  0  0  0  0
  -55.8100   -7.7572   15.7608 C   0  0  0  0  0  0
  -42.2762    1.7552   19.8101 C   0  0  0  0  0  0
  -42.1612   -0.6985   19.5635 C   0  0  0  0  0  0
  -42.1790    3.2237   20.1665 C   0  0  0  0  0  0
  -40.8129    3.8175   19.7927 C   0  0  0  0  0  0
  -42.4151    3.4516   21.6659 C   0  0  0  0  0  0
  -55.8998   -8.7819   16.5869 C   0  0  0  0  0  0
  -54.0664   -9.5034   15.5221 C   0  0  0  0  0  0
  -53.1724   -2.7918   17.6408 H   0  0  0  0  0  0
  -49.7653   -1.0517   17.0726 H   0  0  0  0  0  0
  -55.0231   -5.8228   16.9733 H   0  0  0  0  0  0
  -47.5860   -0.2849   17.9133 H   0  0  0  0  0  0
  1 44  1  0  0  0
  1 45  1  0  0  0
  2 43  1  0  0  0
  2 50  1  0  0  0
  3 16  1  0  0  0
  3 51  1  0  0  0
  4 22  2  0  0  0
  5 29  1  0  0  0
  5 41  1  0  0  0
  6 29  2  0  0  0
  7 32  2  0  0  0
  8 14  1  0  0  0
  8 22  1  0  0  0
  8 52  1  0  0  0
  9 17  1  0  0  0
  9 29  1  0  0  0
  9 53  1  0  0  0
 10 20  1  0  0  0
 10 32  1  0  0  0
 10 54  1  0  0  0
 11 32  1  0  0  0
 11 39  1  0  0  0
 11 40  1  0  0  0
 12 42  1  0  0  0
 12 44  2  0  0  0
 13 49  1  0  0  0
 13 50  2  0  0  0
 14 15  1  0  0  0
 14 18  1  0  0  0
 15 16  1  0  0  0
 16 17  1  0  0  0
 17 19  1  0  0  0
 18 23  1  0  0  0
 19 24  1  0  0  0
 20 21  1  0  0  0
 20 22  1  0  0  0
 21 25  1  0  0  0
 21 26  1  0  0  0
 23 27  2  0  0  0
 23 28  1  0  0  0
 24 30  2  0  0  0
 24 31  1  0  0  0
 27 33  1  0  0  0
 28 34  2  0  0  0
 30 35  1  0  0  0
 31 36  2  0  0  0
 33 37  2  0  0  0
 34 37  1  0  0  0
 35 38  2  0  0  0
 36 38  1  0  0  0
 39 42  1  0  0  0
 41 43  1  0  0  0
 42 45  2  0  0  0
 43 49  2  0  0  0
 44 46  1  0  0  0
 46 47  1  0  0  0
 46 48  1  0  0  0
M  END
>  <CHROM.0>
52.32180747,-179.68368317,-49.97982448

>  <CHROM.1>
-72.60585651,153.90945050,-47.62536515,38.70089852,36.22263845,137.44236776
-102.93562357,125.24861106,-77.08887521,-47.23347717,71.59753017,-113.65889855
133.82454236,-169.43489662,-85.99991908,113.89028013,-55.11575497,-12.49579227
72.40066191,-49.31860521,-3.02797961,17.16485219,-0.28495097,0.62654227,2.40856609

>  <HEADER>
                                                                          

>  <MASTER>
        0    0    0    0    0    0    0    0   98    0   98    0          

>  <Name>
Ritonavir.pdb

>  <RI>
-1.04723e+09

>  <Rbt.Current_Directory>
/root/miniconda3/envs/rdock/share/rxdock-2013.1.1_148c5bd1-0/data/ligands/prepped_ligands/Ritonavir

>  <Rbt.Executable>
rbdock/0.1.0

>  <Rbt.Library>
librxdock.so/0.1.0

>  <Rbt.Parameter_File>
/root/miniconda3/envs/rdock/share/rxdock-2013.1.1_148c5bd1-0/data/scripts/dock.prm

>  <Rbt.Receptor>
def.prm

>  <SCORE>
15.2871

>  <SCORE.INTER>
0.685919

>  <SCORE.INTER.CONST>
1

>  <SCORE.INTER.POLAR>
-1.31044

>  <SCORE.INTER.REPUL>
0

>  <SCORE.INTER.ROT>
18

>  <SCORE.INTER.VDW>
-18.2586

>  <SCORE.INTER.norm>
0.0137184

>  <SCORE.INTRA>
11.678

>  <SCORE.INTRA.DIHEDRAL>
2.36468

>  <SCORE.INTRA.DIHEDRAL.0>
28.8748

>  <SCORE.INTRA.POLAR>
0

>  <SCORE.INTRA.POLAR.0>
0

>  <SCORE.INTRA.REPUL>
0

>  <SCORE.INTRA.REPUL.0>
0

>  <SCORE.INTRA.VDW>
10.4956

>  <SCORE.INTRA.VDW.0>
-1.74536

>  <SCORE.INTRA.norm>
0.233559

>  <SCORE.RESTR>
3.74409

>  <SCORE.RESTR.CAVITY>
3.74409

>  <SCORE.RESTR.norm>
0.0748819

>  <SCORE.SYSTEM>
-0.820921

>  <SCORE.SYSTEM.CONST>
0

>  <SCORE.SYSTEM.DIHEDRAL>
0.384016

>  <SCORE.SYSTEM.POLAR>
-0.0177082

>  <SCORE.SYSTEM.VDW>
-0.952721

>  <SCORE.SYSTEM.norm>
-0.0164184

>  <SCORE.heavy>
50

>  <SCORE.norm>
0.305741

>  <TITLE>
    Ritonavir_D                                                           

$$$$
Ritonavir.pdb
  RxDock  02242112083D
librxdock.so/0.1.0
 54 57  0  0  0  0  0  0  0  0999 V2000
  -50.0034   -9.6206   20.5983 S   0  0  0  0  0  0
  -48.1586    2.2706   11.0820 S   0  0  0  0  0  0
  -48.4983    1.2840   17.9940 O   0  0  0  0  0  0
  -51.3784   -1.3680   20.5623 O   0  0  0  0  0  0
  -50.4327    0.5073   13.8325 O   0  0  0  0  0  0
  -49.5274   -1.5238   14.1669 O   0  0  0  0  0  0
  -50.6992   -5.3521   20.5177 O   0  0  0  0  0  0
  -49.5823   -1.9327   19.2833 N   0  0  0  0  0  0
  -49.4062    0.0664   15.8096 N   0  0  0  0  0  0
  -52.3769   -3.9208   20.0683 N   0  0  0  0  0  0
  -52.6145   -5.5643   21.6935 N   0  0  0  0  0  0
  -51.5671   -7.6204   20.1561 N   0  0  0  0  0  0
  -49.4693    4.2604   12.0565 N   0  0  0  0  0  0
  -48.7204   -0.9001   19.8801 C   0  0  0  0  0  0
  -47.4905   -0.7303   18.9639 C   0  0  0  0  0  0
  -47.8171    0.0584   17.6780 C   0  0  0  0  0  0
  -48.6892   -0.8094   16.7488 C   0  0  0  0  0  0
  -48.2876   -1.2708   21.3159 C   0  0  0  0  0  0
  -47.8168   -1.8136   15.9652 C   0  0  0  0  0  0
  -51.5688   -3.2307   19.0519 C   0  0  0  0  0  0
  -52.4345   -2.7339   17.8738 C   0  0  0  0  0  0
  -50.8467   -2.0750   19.7157 C   0  0  0  0  0  0
  -46.9266   -0.7327   21.7348 C   0  0  0  0  0  0
  -48.1189   -3.2792   16.2423 C   0  0  0  0  0  0
  -51.5642   -1.9674   16.8644 C   0  0  0  0  0  0
  -53.0805   -3.9181   17.1337 C   0  0  0  0  0  0
  -45.9295   -1.6000   22.1265 C   0  0  0  0  0  0
  -46.6813    0.6228   21.7271 C   0  0  0  0  0  0
  -49.7631   -0.3951   14.5937 C   0  0  0  0  0  0
  -49.0895   -3.9360   15.5181 C   0  0  0  0  0  0
  -47.4263   -3.9602   17.2209 C   0  0  0  0  0  0
  -51.8502   -4.9636   20.7481 C   0  0  0  0  0  0
  -44.6992   -1.1171   22.5076 C   0  0  0  0  0  0
  -45.4506    1.1084   22.1066 C   0  0  0  0  0  0
  -49.3655   -5.2608   15.7681 C   0  0  0  0  0  0
  -47.7003   -5.2848   17.4720 C   0  0  0  0  0  0
  -44.4581    0.2382   22.4973 C   0  0  0  0  0  0
  -48.6703   -5.9359   16.7448 C   0  0  0  0  0  0
  -52.0553   -6.6914   22.4581 C   0  0  0  0  0  0
  -53.9949   -5.1323   21.9878 C   0  0  0  0  0  0
  -50.0730    0.5687   12.4413 C   0  0  0  0  0  0
  -51.3885   -7.6888   21.5317 C   0  0  0  0  0  0
  -49.5766    1.9594   12.1017 C   0  0  0  0  0  0
  -50.9146   -8.5484   19.5129 C   0  0  0  0  0  0
  -50.6081   -8.6612   21.9600 C   0  0  0  0  0  0
  -50.9431   -8.6938   18.0060 C   0  0  0  0  0  0
  -49.5396   -8.9123   17.4221 C   0  0  0  0  0  0
  -51.5618   -7.4585   17.3370 C   0  0  0  0  0  0
  -50.1002    3.1041   12.4969 C   0  0  0  0  0  0
  -48.4354    4.0108   11.3041 C   0  0  0  0  0  0
  -47.9227    1.8882   18.5550 H   0  0  0  0  0  0
  -49.2595   -2.4523   18.6498 H   0  0  0  0  0  0
  -49.6052    0.8905   16.0520 H   0  0  0  0  0  0
  -53.1884   -3.6353   20.2405 H   0  0  0  0  0  0
  1 44  1  0  0  0
  1 45  1  0  0  0
  2 43  1  0  0  0
  2 50  1  0  0  0
  3 16  1  0  0  0
  3 51  1  0  0  0
  4 22  2  0  0  0
  5 29  1  0  0  0
  5 41  1  0  0  0
  6 29  2  0  0  0
  7 32  2  0  0  0
  8 14  1  0  0  0
  8 22  1  0  0  0
  8 52  1  0  0  0
  9 17  1  0  0  0
  9 29  1  0  0  0
  9 53  1  0  0  0
 10 20  1  0  0  0
 10 32  1  0  0  0
 10 54  1  0  0  0
 11 32  1  0  0  0
 11 39  1  0  0  0
 11 40  1  0  0  0
 12 42  1  0  0  0
 12 44  2  0  0  0
 13 49  1  0  0  0
 13 50  2  0  0  0
 14 15  1  0  0  0
 14 18  1  0  0  0
 15 16  1  0  0  0
 16 17  1  0  0  0
 17 19  1  0  0  0
 18 23  1  0  0  0
 19 24  1  0  0  0
 20 21  1  0  0  0
 20 22  1  0  0  0
 21 25  1  0  0  0
 21 26  1  0  0  0
 23 27  2  0  0  0
 23 28  1  0  0  0
 24 30  2  0  0  0
 24 31  1  0  0  0
 27 33  1  0  0  0
 28 34  2  0  0  0
 30 35  1  0  0  0
 31 36  2  0  0  0
 33 37  2  0  0  0
 34 37  1  0  0  0
 35 38  2  0  0  0
 36 38  1  0  0  0
 39 42  1  0  0  0
 41 43  1  0  0  0
 42 45  2  0  0  0
 43 49  2  0  0  0
 44 46  1  0  0  0
 46 47  1  0  0  0
 46 48  1  0  0  0
M  END
>  <CHROM.0>
56.76219683,-179.39870074,-176.53358647

>  <CHROM.1>
62.14216962,-41.85238027,-120.18379995,-165.75366901,152.01592300,145.75288633
-47.23069006,75.58499692,149.65941419,50.55774451,36.84037656,-121.84284388
-121.18907479,87.55576055,177.59650247,-39.75479767,-12.07024932,137.30247787
-46.18084047,-49.57363760,-2.72971448,17.96070803,1.92121445,1.01894635,2.16795870

>  <HEADER>
                                                                          

>  <MASTER>
        0    0    0    0    0    0    0    0   98    0   98    0          

>  <Name>
Ritonavir.pdb

>  <RI>
-1.04723e+09

>  <Rbt.Current_Directory>
/root/miniconda3/envs/rdock/share/rxdock-2013.1.1_148c5bd1-0/data/ligands/prepped_ligands/Ritonavir

>  <Rbt.Executable>
rbdock/0.1.0

>  <Rbt.Library>
librxdock.so/0.1.0

>  <Rbt.Parameter_File>
/root/miniconda3/envs/rdock/share/rxdock-2013.1.1_148c5bd1-0/data/scripts/dock.prm

>  <Rbt.Receptor>
def.prm

>  <SCORE>
0.0416407

>  <SCORE.INTER>
-8.06045

>  <SCORE.INTER.CONST>
1

>  <SCORE.INTER.POLAR>
0

>  <SCORE.INTER.REPUL>
0.000139717

>  <SCORE.INTER.ROT>
18

>  <SCORE.INTER.VDW>
-31.4612

>  <SCORE.INTER.norm>
-0.161209

>  <SCORE.INTRA>
7.01414

>  <SCORE.INTRA.DIHEDRAL>
13.075

>  <SCORE.INTRA.DIHEDRAL.0>
28.8748

>  <SCORE.INTRA.POLAR>
-0.0880543

>  <SCORE.INTRA.POLAR.0>
0

>  <SCORE.INTRA.REPUL>
0

>  <SCORE.INTRA.REPUL.0>
0

>  <SCORE.INTRA.VDW>
0.776017

>  <SCORE.INTRA.VDW.0>
-1.74536

>  <SCORE.INTRA.norm>
0.140283

>  <SCORE.RESTR>
2.14382

>  <SCORE.RESTR.CAVITY>
2.14382

>  <SCORE.RESTR.norm>
0.0428764

>  <SCORE.SYSTEM>
-1.05586

>  <SCORE.SYSTEM.CONST>
0

>  <SCORE.SYSTEM.DIHEDRAL>
0.0569239

>  <SCORE.SYSTEM.POLAR>
-0.00955932

>  <SCORE.SYSTEM.VDW>
-1.05182

>  <SCORE.SYSTEM.norm>
-0.0211173

>  <SCORE.heavy>
50

>  <SCORE.norm>
0.000832814

>  <TITLE>
    Ritonavir_D                                                           

$$$$
Ritonavir.pdb
  RxDock  02242112083D
librxdock.so/0.1.0
 54 57  0  0  0  0  0  0  0  0999 V2000
  -51.4858   -7.6818   18.6308 S   0  0  0  0  0  0
  -43.5837   -1.7496   21.6753 S   0  0  0  0  0  0
  -45.5789   -3.0674   14.7722 O   0  0  0  0  0  0
  -48.8958   -3.8644   19.7146 O   0  0  0  0  0  0
  -43.3936   -1.0622   17.7034 O   0  0  0  0  0  0
  -45.3092   -1.9932   18.4244 O   0  0  0  0  0  0
  -51.4931   -4.0614   19.2691 O   0  0  0  0  0  0
  -49.0408   -2.9611   17.6305 N   0  0  0  0  0  0
  -45.2313   -0.9819   16.3719 N   0  0  0  0  0  0
  -51.0085   -2.2082   20.4505 N   0  0  0  0  0  0
  -52.5476   -3.7586   21.2419 N   0  0  0  0  0  0
  -51.2759   -6.5733   20.9478 N   0  0  0  0  0  0
  -44.5536    0.6205   21.4118 N   0  0  0  0  0  0
  -48.3596   -4.0991   16.9931 C   0  0  0  0  0  0
  -46.8927   -3.6885   16.7475 C   0  0  0  0  0  0
  -46.7414   -2.7300   15.5472 C   0  0  0  0  0  0
  -46.6369   -1.2787   16.0567 C   0  0  0  0  0  0
  -49.0426   -4.5115   15.6703 C   0  0  0  0  0  0
  -47.1538   -0.2891   14.9904 C   0  0  0  0  0  0
  -50.0401   -1.7667   19.4359 C   0  0  0  0  0  0
  -49.0874   -0.6840   19.9877 C   0  0  0  0  0  0
  -49.2621   -2.9759   18.9559 C   0  0  0  0  0  0
  -50.5630   -4.5661   15.7232 C   0  0  0  0  0  0
  -48.4735   -0.6779   14.3398 C   0  0  0  0  0  0
  -48.3068   -1.2313   21.1939 C   0  0  0  0  0  0
  -48.0650   -0.2605   18.9188 C   0  0  0  0  0  0
  -51.2092   -5.7789   15.8304 C   0  0  0  0  0  0
  -51.3039   -3.4064   15.6631 C   0  0  0  0  0  0
  -44.7023   -1.3848   17.5451 C   0  0  0  0  0  0
  -48.5763   -1.8536   13.6290 C   0  0  0  0  0  0
  -49.5751    0.1433   14.4542 C   0  0  0  0  0  0
  -51.6775   -3.3698   20.2773 C   0  0  0  0  0  0
  -52.5829   -5.8322   15.8763 C   0  0  0  0  0  0
  -52.6786   -3.4570   15.7104 C   0  0  0  0  0  0
  -49.7682   -2.2064   13.0386 C   0  0  0  0  0  0
  -50.7677   -0.2078   13.8651 C   0  0  0  0  0  0
  -53.3194   -4.6706   15.8171 C   0  0  0  0  0  0
  -50.8646   -1.3839   13.1571 C   0  0  0  0  0  0
  -53.2749   -5.0286   21.0822 C   0  0  0  0  0  0
  -52.7985   -2.9534   22.4532 C   0  0  0  0  0  0
  -42.7560   -1.5300   18.9048 C   0  0  0  0  0  0
  -52.4188   -6.0489   20.3585 C   0  0  0  0  0  0
  -43.4328   -0.9189   20.1149 C   0  0  0  0  0  0
  -50.6672   -7.4426   20.1899 C   0  0  0  0  0  0
  -52.6992   -6.5002   19.1519 C   0  0  0  0  0  0
  -49.3973   -8.1589   20.5988 C   0  0  0  0  0  0
  -48.1696   -7.6306   19.8425 C   0  0  0  0  0  0
  -49.5055   -9.6706   20.3559 C   0  0  0  0  0  0
  -43.9914    0.2739   20.1901 C   0  0  0  0  0  0
  -44.4300   -0.3204   22.3044 C   0  0  0  0  0  0
  -45.7298   -3.9008   14.2303 H   0  0  0  0  0  0
  -49.3018   -2.2810   17.1357 H   0  0  0  0  0  0
  -44.7388   -0.5457   15.7848 H   0  0  0  0  0  0
  -51.1280   -1.7236   21.1720 H   0  0  0  0  0  0
  1 44  1  0  0  0
  1 45  1  0  0  0
  2 43  1  0  0  0
  2 50  1  0  0  0
  3 16  1  0  0  0
  3 51  1  0  0  0
  4 22  2  0  0  0
  5 29  1  0  0  0
  5 41  1  0  0  0
  6 29  2  0  0  0
  7 32  2  0  0  0
  8 14  1  0  0  0
  8 22  1  0  0  0
  8 52  1  0  0  0
  9 17  1  0  0  0
  9 29  1  0  0  0
  9 53  1  0  0  0
 10 20  1  0  0  0
 10 32  1  0  0  0
 10 54  1  0  0  0
 11 32  1  0  0  0
 11 39  1  0  0  0
 11 40  1  0  0  0
 12 42  1  0  0  0
 12 44  2  0  0  0
 13 49  1  0  0  0
 13 50  2  0  0  0
 14 15  1  0  0  0
 14 18  1  0  0  0
 15 16  1  0  0  0
 16 17  1  0  0  0
 17 19  1  0  0  0
 18 23  1  0  0  0
 19 24  1  0  0  0
 20 21  1  0  0  0
 20 22  1  0  0  0
 21 25  1  0  0  0
 21 26  1  0  0  0
 23 27  2  0  0  0
 23 28  1  0  0  0
 24 30  2  0  0  0
 24 31  1  0  0  0
 27 33  1  0  0  0
 28 34  2  0  0  0
 30 35  1  0  0  0
 31 36  2  0  0  0
 33 37  2  0  0  0
 34 37  1  0  0  0
 35 38  2  0  0  0
 36 38  1  0  0  0
 39 42  1  0  0  0
 41 43  1  0  0  0
 42 45  2  0  0  0
 43 49  2  0  0  0
 44 46  1  0  0  0
 46 47  1  0  0  0
 46 48  1  0  0  0
M  END
>  <CHROM.0>
175.44303161,172.64685366,177.12840213

>  <CHROM.1>
74.10701029,3.23270293,-62.17026590,-101.59870858,-80.84530076,-162.69009919
33.50551033,-75.93342729,-43.87152220,-139.49539148,-35.55628706,166.36558648
-102.05572228,-61.15725807,59.61239059,-39.43277878,67.27771611,147.60252138
72.79980308,-48.73653694,-3.22734202,18.20710592,-2.90377947,-0.57691384
-1.17878868

>  <HEADER>
                                                                          

>  <MASTER>
        0    0    0    0    0    0    0    0   98    0   98    0          

>  <Name>
Ritonavir.pdb

>  <RI>
-1.04723e+09

>  <Rbt.Current_Directory>
/root/miniconda3/envs/rdock/share/rxdock-2013.1.1_148c5bd1-0/data/ligands/prepped_ligands/Ritonavir

>  <Rbt.Executable>
rbdock/0.1.0

>  <Rbt.Library>
librxdock.so/0.1.0

>  <Rbt.Parameter_File>
/root/miniconda3/envs/rdock/share/rxdock-2013.1.1_148c5bd1-0/data/scripts/dock.prm

>  <Rbt.Receptor>
def.prm

>  <SCORE>
-13.4387

>  <SCORE.INTER>
-6.04742

>  <SCORE.INTER.CONST>
1

>  <SCORE.INTER.POLAR>
-1.22333

>  <SCORE.INTER.REPUL>
0

>  <SCORE.INTER.ROT>
18

>  <SCORE.INTER.VDW>
-25.2881

>  <SCORE.INTER.norm>
-0.120948

>  <SCORE.INTRA>
-7.49796

>  <SCORE.INTRA.DIHEDRAL>
-7.9454

>  <SCORE.INTRA.DIHEDRAL.0>
28.8748

>  <SCORE.INTRA.POLAR>
0

>  <SCORE.INTRA.POLAR.0>
0

>  <SCORE.INTRA.REPUL>
0

>  <SCORE.INTRA.REPUL.0>
0

>  <SCORE.INTRA.VDW>
-3.52526

>  <SCORE.INTRA.VDW.0>
-1.74536

>  <SCORE.INTRA.norm>
-0.149959

>  <SCORE.RESTR>
1.02831

>  <SCORE.RESTR.CAVITY>
1.02831

>  <SCORE.RESTR.norm>
0.0205661

>  <SCORE.SYSTEM>
-0.921616

>  <SCORE.SYSTEM.CONST>
0

>  <SCORE.SYSTEM.DIHEDRAL>
0.340709

>  <SCORE.SYSTEM.VDW>
-1.09197

>  <SCORE.SYSTEM.norm>
-0.0184323

>  <SCORE.heavy>
50

>  <SCORE.norm>
-0.268774

>  <TITLE>
    Ritonavir_D                                                           

$$$$
Ritonavir.pdb
  RxDock  02242112093D
librxdock.so/0.1.0
 54 57  0  0  0  0  0  0  0  0999 V2000
  -51.9875   -0.3712   19.1061 S   0  0  0  0  0  0
  -46.5320    2.2079   20.7869 S   0  0  0  0  0  0
  -44.4202   -2.6757   16.2448 O   0  0  0  0  0  0
  -47.9306   -6.7363   16.5969 O   0  0  0  0  0  0
  -44.1740    1.4478   17.8095 O   0  0  0  0  0  0
  -46.4116    1.2278   17.7747 O   0  0  0  0  0  0
  -49.3156   -4.8909   20.4315 O   0  0  0  0  0  0
  -48.2704   -4.8937   17.8892 N   0  0  0  0  0  0
  -45.0990   -0.2566   16.6280 N   0  0  0  0  0  0
  -50.1496   -6.5475   19.1567 N   0  0  0  0  0  0
  -51.5590   -5.0471   20.2343 N   0  0  0  0  0  0
  -50.3425   -2.2450   19.7573 N   0  0  0  0  0  0
  -45.5815   -0.0385   21.6100 N   0  0  0  0  0  0
  -47.8629   -3.9628   16.8250 C   0  0  0  0  0  0
  -46.5613   -3.2711   17.2815 C   0  0  0  0  0  0
  -45.8461   -2.5384   16.1265 C   0  0  0  0  0  0
  -46.2390   -1.0477   16.1403 C   0  0  0  0  0  0
  -48.9609   -2.9196   16.5210 C   0  0  0  0  0  0
  -46.6349   -0.5763   14.7245 C   0  0  0  0  0  0
  -48.7992   -7.0234   18.8219 C   0  0  0  0  0  0
  -48.7889   -8.5329   18.4974 C   0  0  0  0  0  0
  -48.2825   -6.2157   17.6478 C   0  0  0  0  0  0
  -50.3664   -3.4885   16.3857 C   0  0  0  0  0  0
  -47.9841   -1.0811   14.2336 C   0  0  0  0  0  0
  -47.3430   -9.0529   18.4455 C   0  0  0  0  0  0
  -49.5364   -9.3292   19.5811 C   0  0  0  0  0  0
  -50.5483   -4.8101   16.0391 C   0  0  0  0  0  0
  -51.4657   -2.6884   16.6069 C   0  0  0  0  0  0
  -45.3096    0.8172   17.4161 C   0  0  0  0  0  0
  -49.1303   -0.3633   14.4962 C   0  0  0  0  0  0
  -48.0706   -2.2608   13.5251 C   0  0  0  0  0  0
  -50.3006   -5.4730   19.9626 C   0  0  0  0  0  0
  -51.8169   -5.3269   15.9139 C   0  0  0  0  0  0
  -52.7361   -3.2036   16.4836 C   0  0  0  0  0  0
  -50.3515   -0.8188   14.0547 C   0  0  0  0  0  0
  -49.2904   -2.7176   13.0824 C   0  0  0  0  0  0
  -52.9127   -4.5240   16.1369 C   0  0  0  0  0  0
  -50.4318   -1.9958   13.3470 C   0  0  0  0  0  0
  -51.7468   -3.8684   21.0963 C   0  0  0  0  0  0
  -52.7567   -5.7234   19.6989 C   0  0  0  0  0  0
  -44.2765    2.2961   18.9664 C   0  0  0  0  0  0
  -51.5731   -2.5899   20.3008 C   0  0  0  0  0  0
  -45.0403    1.5790   20.0611 C   0  0  0  0  0  0
  -50.3760   -1.1203   19.0982 C   0  0  0  0  0  0
  -52.5573   -1.7429   20.0725 C   0  0  0  0  0  0
  -49.1667   -0.5216   18.4112 C   0  0  0  0  0  0
  -47.8990   -0.6413   19.2697 C   0  0  0  0  0  0
  -49.3903    0.9598   18.0771 C   0  0  0  0  0  0
  -44.7255    0.4260   20.6198 C   0  0  0  0  0  0
  -46.5815    0.7682   21.8258 C   0  0  0  0  0  0
  -44.1547   -3.6369   16.3729 H   0  0  0  0  0  0
  -48.5074   -4.5750   18.6752 H   0  0  0  0  0  0
  -44.2798   -0.4954   16.4058 H   0  0  0  0  0  0
  -50.8472   -6.9529   18.8120 H   0  0  0  0  0  0
  1 44  1  0  0  0
  1 45  1  0  0  0
  2 43  1  0  0  0
  2 50  1  0  0  0
  3 16  1  0  0  0
  3 51  1  0  0  0
  4 22  2  0  0  0
  5 29  1  0  0  0
  5 41  1  0  0  0
  6 29  2  0  0  0
  7 32  2  0  0  0
  8 14  1  0  0  0
  8 22  1  0  0  0
  8 52  1  0  0  0
  9 17  1  0  0  0
  9 29  1  0  0  0
  9 53  1  0  0  0
 10 20  1  0  0  0
 10 32  1  0  0  0
 10 54  1  0  0  0
 11 32  1  0  0  0
 11 39  1  0  0  0
 11 40  1  0  0  0
 12 42  1  0  0  0
 12 44  2  0  0  0
 13 49  1  0  0  0
 13 50  2  0  0  0
 14 15  1  0  0  0
 14 18  1  0  0  0
 15 16  1  0  0  0
 16 17  1  0  0  0
 17 19  1  0  0  0
 18 23  1  0  0  0
 19 24  1  0  0  0
 20 21  1  0  0  0
 20 22  1  0  0  0
 21 25  1  0  0  0
 21 26  1  0  0  0
 23 27  2  0  0  0
 23 28  1  0  0  0
 24 30  2  0  0  0
 24 31  1  0  0  0
 27 33  1  0  0  0
 28 34  2  0  0  0
 30 35  1  0  0  0
 31 36  2  0  0  0
 33 37  2  0  0  0
 34 37  1  0  0  0
 35 38  2  0  0  0
 36 38  1  0  0  0
 39 42  1  0  0  0
 41 43  1  0  0  0
 42 45  2  0  0  0
 43 49  2  0  0  0
 44 46  1  0  0  0
 46 47  1  0  0  0
 46 48  1  0  0  0
M  END
>  <CHROM.0>
45.58667814,178.40144335,-148.63568716

>  <CHROM.1>
50.43702391,19.74101511,46.11341211,-115.13502045,-142.80827904,153.13779800
81.64122934,165.87303738,-45.97482722,-142.22443061,-15.12602658,-166.53693880
-24.05045082,88.93275198,-168.09310926,-122.23292584,-65.99749393,-121.63324442
137.79369837,-48.64597186,-2.47401589,17.93247660,0.43873279,0.92451587,1.10435956

>  <HEADER>
                                                                          

>  <MASTER>
        0    0    0    0    0    0    0    0   98    0   98    0          

>  <Name>
Ritonavir.pdb

>  <RI>
-1.04723e+09

>  <Rbt.Current_Directory>
/root/miniconda3/envs/rdock/share/rxdock-2013.1.1_148c5bd1-0/data/ligands/prepped_ligands/Ritonavir

>  <Rbt.Executable>
rbdock/0.1.0

>  <Rbt.Library>
librxdock.so/0.1.0

>  <Rbt.Parameter_File>
/root/miniconda3/envs/rdock/share/rxdock-2013.1.1_148c5bd1-0/data/scripts/dock.prm

>  <Rbt.Receptor>
def.prm

>  <SCORE>
-7.1949

>  <SCORE.INTER>
4.1846

>  <SCORE.INTER.CONST>
1

>  <SCORE.INTER.POLAR>
-0.164563

>  <SCORE.INTER.REPUL>
0.191107

>  <SCORE.INTER.ROT>
18

>  <SCORE.INTER.VDW>
-19.6114

>  <SCORE.INTER.norm>
0.0836919

>  <SCORE.INTRA>
-12.1928

>  <SCORE.INTRA.DIHEDRAL>
-2.86081

>  <SCORE.INTRA.DIHEDRAL.0>
28.8748

>  <SCORE.INTRA.POLAR>
-0.0567174

>  <SCORE.INTRA.POLAR.0>
0

>  <SCORE.INTRA.REPUL>
0

>  <SCORE.INTRA.REPUL.0>
0

>  <SCORE.INTRA.VDW>
-10.5696

>  <SCORE.INTRA.VDW.0>
-1.74536

>  <SCORE.INTRA.norm>
-0.243857

>  <SCORE.RESTR>
0.248345

>  <SCORE.RESTR.CAVITY>
0.248345

>  <SCORE.RESTR.norm>
0.00496689

>  <SCORE.SYSTEM>
0.564989

>  <SCORE.SYSTEM.CONST>
0

>  <SCORE.SYSTEM.DIHEDRAL>
2.42398

>  <SCORE.SYSTEM.POLAR>
-0.0100911

>  <SCORE.SYSTEM.VDW>
-0.612693

>  <SCORE.SYSTEM.norm>
0.0112998

>  <SCORE.heavy>
50

>  <SCORE.norm>
-0.143898

>  <TITLE>
    Ritonavir_D                                                           

$$$$
Ritonavir.pdb
  RxDock  02242112093D
librxdock.so/0.1.0
 54 57  0  0  0  0  0  0  0  0999 V2000
  -44.0264    1.1193   22.3194 S   0  0  0  0  0  0
  -47.8111   -8.1894   17.8289 S   0  0  0  0  0  0
  -53.1982   -3.9452   17.9803 O   0  0  0  0  0  0
  -48.2123   -3.6058   16.8263 O   0  0  0  0  0  0
  -51.5024   -7.8803   18.4693 O   0  0  0  0  0  0
  -50.2035   -7.0427   16.8360 O   0  0  0  0  0  0
  -47.6653   -1.5092   18.6400 O   0  0  0  0  0  0
  -49.6570   -1.8515   16.6983 N   0  0  0  0  0  0
  -52.2884   -6.1696   17.1995 N   0  0  0  0  0  0
  -47.3438   -0.3088   16.7637 N   0  0  0  0  0  0
  -47.3694    0.7191   18.8473 N   0  0  0  0  0  0
  -45.2545   -0.4876   20.7222 N   0  0  0  0  0  0
  -47.5420   -6.9461   20.0669 N   0  0  0  0  0  0
  -50.7558   -2.5951   17.3347 C   0  0  0  0  0  0
  -51.9199   -2.6655   16.3244 C   0  0  0  0  0  0
  -52.8569   -3.8637   16.5864 C   0  0  0  0  0  0
  -52.1680   -5.1657   16.1314 C   0  0  0  0  0  0
  -51.2128   -1.9311   18.6525 C   0  0  0  0  0  0
  -52.8161   -5.7002   14.8361 C   0  0  0  0  0  0
  -47.4250   -1.5170   15.9295 C   0  0  0  0  0  0
  -46.0575   -2.2245   15.8132 C   0  0  0  0  0  0
  -48.4634   -2.4451   16.5278 C   0  0  0  0  0  0
  -51.3714   -0.4185   18.5874 C   0  0  0  0  0  0
  -54.2823   -6.0870   14.9642 C   0  0  0  0  0  0
  -45.0743   -1.3480   15.0201 C   0  0  0  0  0  0
  -45.4503   -2.4708   17.2053 C   0  0  0  0  0  0
  -50.2601    0.3963   18.6160 C   0  0  0  0  0  0
  -52.6245    0.1471   18.5007 C   0  0  0  0  0  0
  -51.2690   -7.0164   17.4489 C   0  0  0  0  0  0
  -54.7270   -7.2933   14.4689 C   0  0  0  0  0  0
  -55.1772   -5.2336   15.5742 C   0  0  0  0  0  0
  -47.4705   -0.4115   18.1055 C   0  0  0  0  0  0
  -50.3999    1.7636   18.5594 C   0  0  0  0  0  0
  -52.7668    1.5149   18.4425 C   0  0  0  0  0  0
  -56.0528   -7.6444   14.5823 C   0  0  0  0  0  0
  -56.5028   -5.5831   15.6890 C   0  0  0  0  0  0
  -51.6540    2.3246   18.4718 C   0  0  0  0  0  0
  -56.9410   -6.7896   15.1931 C   0  0  0  0  0  0
  -47.4875    0.6286   20.3121 C   0  0  0  0  0  0
  -47.1463    2.0464   18.2416 C   0  0  0  0  0  0
  -50.4851   -8.8642   18.7252 C   0  0  0  0  0  0
  -46.1172    0.5750   20.9578 C   0  0  0  0  0  0
  -49.1598   -8.1758   18.9814 C   0  0  0  0  0  0
  -44.1174   -0.3667   21.3491 C   0  0  0  0  0  0
  -45.6616    1.5146   21.7625 C   0  0  0  0  0  0
  -43.0051   -1.3903   21.2606 C   0  0  0  0  0  0
  -42.8850   -1.9895   19.8517 C   0  0  0  0  0  0
  -43.2187   -2.5354   22.2601 C   0  0  0  0  0  0
  -48.8196   -7.4908   20.0563 C   0  0  0  0  0  0
  -46.8756   -7.2121   18.9796 C   0  0  0  0  0  0
  -52.3907   -4.1506   18.5432 H   0  0  0  0  0  0
  -49.7905   -1.0208   16.4383 H   0  0  0  0  0  0
  -53.0286   -6.2067   17.6772 H   0  0  0  0  0  0
  -47.1916    0.4675   16.3843 H   0  0  0  0  0  0
  1 44  1  0  0  0
  1 45  1  0  0  0
  2 43  1  0  0  0
  2 50  1  0  0  0
  3 16  1  0  0  0
  3 51  1  0  0  0
  4 22  2  0  0  0
  5 29  1  0  0  0
  5 41  1  0  0  0
  6 29  2  0  0  0
  7 32  2  0  0  0
  8 14  1  0  0  0
  8 22  1  0  0  0
  8 52  1  0  0  0
  9 17  1  0  0  0
  9 29  1  0  0  0
  9 53  1  0  0  0
 10 20  1  0  0  0
 10 32  1  0  0  0
 10 54  1  0  0  0
 11 32  1  0  0  0
 11 39  1  0  0  0
 11 40  1  0  0  0
 12 42  1  0  0  0
 12 44  2  0  0  0
 13 49  1  0  0  0
 13 50  2  0  0  0
 14 15  1  0  0  0
 14 18  1  0  0  0
 15 16  1  0  0  0
 16 17  1  0  0  0
 17 19  1  0  0  0
 18 23  1  0  0  0
 19 24  1  0  0  0
 20 21  1  0  0  0
 20 22  1  0  0  0
 21 25  1  0  0  0
 21 26  1  0  0  0
 23 27  2  0  0  0
 23 28  1  0  0  0
 24 30  2  0  0  0
 24 31  1  0  0  0
 27 33  1  0  0  0
 28 34  2  0  0  0
 30 35  1  0  0  0
 31 36  2  0  0  0
 33 37  2  0  0  0
 34 37  1  0  0  0
 35 38  2  0  0  0
 36 38  1  0  0  0
 39 42  1  0  0  0
 41 43  1  0  0  0
 42 45  2  0  0  0
 43 49  2  0  0  0
 44 46  1  0  0  0
 46 47  1  0  0  0
 46 48  1  0  0  0
M  END
>  <CHROM.0>
61.78801848,177.55985492,98.87075080

>  <CHROM.1>
-65.44430027,-3.91490376,56.56655977,-120.21917600,-142.64197605,-85.69464600
96.94797640,155.78914904,44.54016038,47.14144670,9.88307791,57.65738907,-76.84366815
-132.36481071,-67.17041148,-125.00403328,-63.76817378,-107.87719698,-142.97556104
-49.22750203,-3.06912428,18.09593528,-0.64929475,0.40018785,-3.06091462

>  <HEADER>
                                                                          

>  <MASTER>
        0    0    0    0    0    0    0    0   98    0   98    0          

>  <Name>
Ritonavir.pdb

>  <RI>
-1.04723e+09

>  <Rbt.Current_Directory>
/root/miniconda3/envs/rdock/share/rxdock-2013.1.1_148c5bd1-0/data/ligands/prepped_ligands/Ritonavir

>  <Rbt.Executable>
rbdock/0.1.0

>  <Rbt.Library>
librxdock.so/0.1.0

>  <Rbt.Parameter_File>
/root/miniconda3/envs/rdock/share/rxdock-2013.1.1_148c5bd1-0/data/scripts/dock.prm

>  <Rbt.Receptor>
def.prm

>  <SCORE>
-9.84441

>  <SCORE.INTER>
-7.73585

>  <SCORE.INTER.CONST>
1

>  <SCORE.INTER.POLAR>
-0.50821

>  <SCORE.INTER.REPUL>
0.077199

>  <SCORE.INTER.ROT>
18

>  <SCORE.INTER.VDW>
-29.7939

>  <SCORE.INTER.norm>
-0.154717

>  <SCORE.INTRA>
-4.56903

>  <SCORE.INTRA.DIHEDRAL>
-9.30894

>  <SCORE.INTRA.DIHEDRAL.0>
28.8748

>  <SCORE.INTRA.POLAR>
0

>  <SCORE.INTRA.POLAR.0>
0

>  <SCORE.INTRA.REPUL>
0

>  <SCORE.INTRA.REPUL.0>
0

>  <SCORE.INTRA.VDW>
0.0854398

>  <SCORE.INTRA.VDW.0>
-1.74536

>  <SCORE.INTRA.norm>
-0.0913806

>  <SCORE.RESTR>
1.63892

>  <SCORE.RESTR.CAVITY>
1.63892

>  <SCORE.RESTR.norm>
0.0327784

>  <SCORE.SYSTEM>
0.821551

>  <SCORE.SYSTEM.CONST>
0

>  <SCORE.SYSTEM.DIHEDRAL>
2.62833

>  <SCORE.SYSTEM.POLAR>
-0.00371268

>  <SCORE.SYSTEM.VDW>
-0.47999

>  <SCORE.SYSTEM.norm>
0.016431

>  <SCORE.heavy>
50

>  <SCORE.norm>
-0.196888

>  <TITLE>
    Ritonavir_D                                                           

$$$$
Ritonavir.pdb
  RxDock  02242112093D
librxdock.so/0.1.0
 54 57  0  0  0  0  0  0  0  0999 V2000
  -48.7378   -9.0079   17.8589 S   0  0  0  0  0  0
  -43.7578    0.1863   21.4233 S   0  0  0  0  0  0
  -48.3869    1.2065   20.4324 O   0  0  0  0  0  0
  -52.5048   -1.9181   16.9400 O   0  0  0  0  0  0
  -44.9277    2.2908   19.3692 O   0  0  0  0  0  0
  -46.9146    2.8272   18.4631 O   0  0  0  0  0  0
  -50.7868   -5.6382   17.7886 O   0  0  0  0  0  0
  -50.5350   -1.8715   18.0794 N   0  0  0  0  0  0
  -46.3936    0.6332   18.8590 N   0  0  0  0  0  0
  -51.7036   -4.4832   16.0885 N   0  0  0  0  0  0
  -52.5747   -6.5355   16.7427 N   0  0  0  0  0  0
  -50.5697   -7.8006   19.2108 N   0  0  0  0  0  0
  -43.2683   -1.9616   20.0914 N   0  0  0  0  0  0
  -51.0169   -0.8747   19.0487 C   0  0  0  0  0  0
  -50.1253    0.3775   18.9145 C   0  0  0  0  0  0
  -48.7137    0.1622   19.5004 C   0  0  0  0  0  0
  -47.6806    0.1288   18.3566 C   0  0  0  0  0  0
  -50.9871   -1.4168   20.4949 C   0  0  0  0  0  0
  -47.5060   -1.3093   17.8229 C   0  0  0  0  0  0
  -50.7318   -3.3921   16.2535 C   0  0  0  0  0  0
  -50.2841   -2.8146   14.8932 C   0  0  0  0  0  0
  -51.3601   -2.3155   17.1160 C   0  0  0  0  0  0
  -51.6879   -2.7535   20.6935 C   0  0  0  0  0  0
  -46.4772   -1.4613   16.7118 C   0  0  0  0  0  0
  -49.6475   -3.9190   14.0336 C   0  0  0  0  0  0
  -51.4867   -2.2495   14.1176 C   0  0  0  0  0  0
  -53.0588   -2.8404   20.5804 C   0  0  0  0  0  0
  -50.9592   -3.8846   20.9887 C   0  0  0  0  0  0
  -46.1433    1.9584   18.8654 C   0  0  0  0  0  0
  -45.3542   -0.6634   16.6929 C   0  0  0  0  0  0
  -46.6615   -2.3958   15.7149 C   0  0  0  0  0  0
  -51.6507   -5.5570   16.9078 C   0  0  0  0  0  0
  -53.6955   -4.0462   20.7613 C   0  0  0  0  0  0
  -51.5939   -5.0927   21.1687 C   0  0  0  0  0  0
  -44.4234   -0.7981   15.6883 C   0  0  0  0  0  0
  -45.7319   -2.5322   14.7100 C   0  0  0  0  0  0
  -52.9633   -5.1743   21.0550 C   0  0  0  0  0  0
  -44.6117   -1.7331   14.6968 C   0  0  0  0  0  0
  -52.5464   -7.7065   17.6346 C   0  0  0  0  0  0
  -53.6138   -6.4750   15.6962 C   0  0  0  0  0  0
  -43.7993    1.5540   18.8666 C   0  0  0  0  0  0
  -51.1188   -8.0911   17.9687 C   0  0  0  0  0  0
  -43.6330    0.2711   19.6556 C   0  0  0  0  0  0
  -49.3374   -8.2102   19.3293 C   0  0  0  0  0  0
  -50.3239   -8.7177   17.1239 C   0  0  0  0  0  0
  -48.5124   -8.0155   20.5840 C   0  0  0  0  0  0
  -49.0086   -8.8945   21.7414 C   0  0  0  0  0  0
  -48.5303   -6.5508   21.0428 C   0  0  0  0  0  0
  -43.3791   -0.9288   19.1695 C   0  0  0  0  0  0
  -43.4395   -1.5579   21.3181 C   0  0  0  0  0  0
  -48.1905    2.0714   19.9586 H   0  0  0  0  0  0
  -49.7097   -2.1722   18.1423 H   0  0  0  0  0  0
  -45.7931    0.0625   19.1610 H   0  0  0  0  0  0
  -52.3247   -4.4177   15.4723 H   0  0  0  0  0  0
  1 44  1  0  0  0
  1 45  1  0  0  0
  2 43  1  0  0  0
  2 50  1  0  0  0
  3 16  1  0  0  0
  3 51  1  0  0  0
  4 22  2  0  0  0
  5 29  1  0  0  0
  5 41  1  0  0  0
  6 29  2  0  0  0
  7 32  2  0  0  0
  8 14  1  0  0  0
  8 22  1  0  0  0
  8 52  1  0  0  0
  9 17  1  0  0  0
  9 29  1  0  0  0
  9 53  1  0  0  0
 10 20  1  0  0  0
 10 32  1  0  0  0
 10 54  1  0  0  0
 11 32  1  0  0  0
 11 39  1  0  0  0
 11 40  1  0  0  0
 12 42  1  0  0  0
 12 44  2  0  0  0
 13 49  1  0  0  0
 13 50  2  0  0  0
 14 15  1  0  0  0
 14 18  1  0  0  0
 15 16  1  0  0  0
 16 17  1  0  0  0
 17 19  1  0  0  0
 18 23  1  0  0  0
 19 24  1  0  0  0
 20 21  1  0  0  0
 20 22  1  0  0  0
 21 25  1  0  0  0
 21 26  1  0  0  0
 23 27  2  0  0  0
 23 28  1  0  0  0
 24 30  2  0  0  0
 24 31  1  0  0  0
 27 33  1  0  0  0
 28 34  2  0  0  0
 30 35  1  0  0  0
 31 36  2  0  0  0
 33 37  2  0  0  0
 34 37  1  0  0  0
 35 38  2  0  0  0
 36 38  1  0  0  0
 39 42  1  0  0  0
 41 43  1  0  0  0
 42 45  2  0  0  0
 43 49  2  0  0  0
 44 46  1  0  0  0
 46 47  1  0  0  0
 46 48  1  0  0  0
M  END
>  <CHROM.0>
-75.71425454,61.53600975,174.89557074

>  <CHROM.1>
-73.43022995,-131.68599804,-85.43183771,-119.71397548,-85.54836736,142.04519497
-36.38699599,-72.83790960,-52.25271467,-127.78476364,28.27722370,-58.10736762
-68.63237235,33.30617404,-58.97660838,-45.30102624,104.49978608,-43.94775875
-110.25155710,-48.74210336,-3.03691463,18.40459985,-2.36521132,-0.40119446
-0.27277436

>  <HEADER>
                                                                          

>  <MASTER>
        0    0    0    0    0    0    0    0   98    0   98    0          

>  <Name>
Ritonavir.pdb

>  <RI>
-1.04723e+09

>  <Rbt.Current_Directory>
/root/miniconda3/envs/rdock/share/rxdock-2013.1.1_148c5bd1-0/data/ligands/prepped_ligands/Ritonavir

>  <Rbt.Executable>
rbdock/0.1.0

>  <Rbt.Library>
librxdock.so/0.1.0

>  <Rbt.Parameter_File>
/root/miniconda3/envs/rdock/share/rxdock-2013.1.1_148c5bd1-0/data/scripts/dock.prm

>  <Rbt.Receptor>
def.prm

>  <SCORE>
-4.66893

>  <SCORE.INTER>
-6.31083

>  <SCORE.INTER.CONST>
1

>  <SCORE.INTER.POLAR>
-0.869966

>  <SCORE.INTER.REPUL>
0.095353

>  <SCORE.INTER.ROT>
18

>  <SCORE.INTER.VDW>
-27.2297

>  <SCORE.INTER.norm>
-0.126217

>  <SCORE.INTRA>
1.03643

>  <SCORE.INTRA.DIHEDRAL>
9.16208

>  <SCORE.INTRA.DIHEDRAL.0>
28.8748

>  <SCORE.INTRA.POLAR>
0

>  <SCORE.INTRA.POLAR.0>
0

>  <SCORE.INTRA.REPUL>
0

>  <SCORE.INTRA.REPUL.0>
0

>  <SCORE.INTRA.VDW>
-3.54461

>  <SCORE.INTRA.VDW.0>
-1.74536

>  <SCORE.INTRA.norm>
0.0207287

>  <SCORE.RESTR>
1.22061

>  <SCORE.RESTR.CAVITY>
1.22061

>  <SCORE.RESTR.norm>
0.0244123

>  <SCORE.SYSTEM>
-0.615149

>  <SCORE.SYSTEM.CONST>
0

>  <SCORE.SYSTEM.DIHEDRAL>
0.665861

>  <SCORE.SYSTEM.VDW>
-0.94808

>  <SCORE.SYSTEM.norm>
-0.012303

>  <SCORE.heavy>
50

>  <SCORE.norm>
-0.0933786

>  <TITLE>
    Ritonavir_D                                                           

$$$$
Ritonavir.pdb
  RxDock  02242112103D
librxdock.so/0.1.0
 54 57  0  0  0  0  0  0  0  0999 V2000
  -50.4343   -9.9390   21.2696 S   0  0  0  0  0  0
  -45.4583    1.9331   18.6519 S   0  0  0  0  0  0
  -50.5381   -2.6263   14.2219 O   0  0  0  0  0  0
  -50.0630   -1.2896   18.0915 O   0  0  0  0  0  0
  -48.2723    0.9103   17.5078 O   0  0  0  0  0  0
  -49.9543    0.4201   16.0981 O   0  0  0  0  0  0
  -53.0343   -4.8657   19.3302 O   0  0  0  0  0  0
  -50.1465   -3.5641   18.0784 N   0  0  0  0  0  0
  -47.9731   -0.7180   15.9534 N   0  0  0  0  0  0
  -51.7540   -3.2898   20.3010 N   0  0  0  0  0  0
  -52.1519   -5.3206   21.3576 N   0  0  0  0  0  0
  -50.5336   -7.4771   20.5141 N   0  0  0  0  0  0
  -44.0057   -0.1825   18.8553 N   0  0  0  0  0  0
  -48.8506   -3.6964   17.3941 C   0  0  0  0  0  0
  -49.1267   -3.7584   15.8772 C   0  0  0  0  0  0
  -49.6275   -2.4118   15.3132 C   0  0  0  0  0  0
  -48.4241   -1.5705   14.8431 C   0  0  0  0  0  0
  -48.0775   -4.9491   17.8624 C   0  0  0  0  0  0
  -47.2681   -2.4844   14.3826 C   0  0  0  0  0  0
  -51.9220   -2.3887   19.1513 C   0  0  0  0  0  0
  -52.3504   -0.9725   19.5926 C   0  0  0  0  0  0
  -50.6165   -2.3423   18.3823 C   0  0  0  0  0  0
  -48.7813   -6.2730   17.5991 C   0  0  0  0  0  0
  -45.9951   -2.3752   15.2095 C   0  0  0  0  0  0
  -52.5665   -0.0774   18.3613 C   0  0  0  0  0  0
  -53.6736   -1.0218   20.3761 C   0  0  0  0  0  0
  -50.1327   -6.3987   17.8391 C   0  0  0  0  0  0
  -48.0745   -7.3543   17.1209 C   0  0  0  0  0  0
  -48.8058    0.2031   16.4796 C   0  0  0  0  0  0
  -45.9126   -2.9896   16.4398 C   0  0  0  0  0  0
  -44.9161   -1.6593   14.7358 C   0  0  0  0  0  0
  -52.3444   -4.5057   20.2910 C   0  0  0  0  0  0
  -50.7716   -7.5941   17.6043 C   0  0  0  0  0  0
  -48.7117   -8.5511   16.8838 C   0  0  0  0  0  0
  -44.7631   -2.8908   17.1898 C   0  0  0  0  0  0
  -43.7658   -1.5598   15.4838 C   0  0  0  0  0  0
  -50.0615   -8.6718   17.1254 C   0  0  0  0  0  0
  -43.6890   -2.1764   16.7117 C   0  0  0  0  0  0
  -52.7717   -6.6561   21.3609 C   0  0  0  0  0  0
  -51.3422   -4.9195   22.5247 C   0  0  0  0  0  0
  -47.7434    0.1483   18.6070 C   0  0  0  0  0  0
  -51.7212   -7.7347   21.1864 C   0  0  0  0  0  0
  -46.2429    0.3423   18.6894 C   0  0  0  0  0  0
  -49.7428   -8.5129   20.4658 C   0  0  0  0  0  0
  -51.8595   -8.9590   21.6555 C   0  0  0  0  0  0
  -48.3884   -8.4954   19.7889 C   0  0  0  0  0  0
  -47.7169   -9.8764   19.8091 C   0  0  0  0  0  0
  -47.4440   -7.4851   20.4549 C   0  0  0  0  0  0
  -45.3282   -0.6024   18.7957 C   0  0  0  0  0  0
  -43.8890    1.1136   18.7944 C   0  0  0  0  0  0
  -51.2421   -3.3033   14.4606 H   0  0  0  0  0  0
  -50.6014   -4.2887   18.2872 H   0  0  0  0  0  0
  -47.1581   -0.8202   16.2742 H   0  0  0  0  0  0
  -51.2528   -3.0387   20.9758 H   0  0  0  0  0  0
  1 44  1  0  0  0
  1 45  1  0  0  0
  2 43  1  0  0  0
  2 50  1  0  0  0
  3 16  1  0  0  0
  3 51  1  0  0  0
  4 22  2  0  0  0
  5 29  1  0  0  0
  5 41  1  0  0  0
  6 29  2  0  0  0
  7 32  2  0  0  0
  8 14  1  0  0  0
  8 22  1  0  0  0
  8 52  1  0  0  0
  9 17  1  0  0  0
  9 29  1  0  0  0
  9 53  1  0  0  0
 10 20  1  0  0  0
 10 32  1  0  0  0
 10 54  1  0  0  0
 11 32  1  0  0  0
 11 39  1  0  0  0
 11 40  1  0  0  0
 12 42  1  0  0  0
 12 44  2  0  0  0
 13 49  1  0  0  0
 13 50  2  0  0  0
 14 15  1  0  0  0
 14 18  1  0  0  0
 15 16  1  0  0  0
 16 17  1  0  0  0
 17 19  1  0  0  0
 18 23  1  0  0  0
 19 24  1  0  0  0
 20 21  1  0  0  0
 20 22  1  0  0  0
 21 25  1  0  0  0
 21 26  1  0  0  0
 23 27  2  0  0  0
 23 28  1  0  0  0
 24 30  2  0  0  0
 24 31  1  0  0  0
 27 33  1  0  0  0
 28 34  2  0  0  0
 30 35  1  0  0  0
 31 36  2  0  0  0
 33 37  2  0  0  0
 34 37  1  0  0  0
 35 38  2  0  0  0
 36 38  1  0  0  0
 39 42  1  0  0  0
 41 43  1  0  0  0
 42 45  2  0  0  0
 43 49  2  0  0  0
 44 46  1  0  0  0
 46 47  1  0  0  0
 46 48  1  0  0  0
M  END
>  <CHROM.0>
70.06057670,66.44244726,45.29559635

>  <CHROM.1>
48.69298871,125.42961111,114.27094632,-93.19659722,-61.42580821,130.35913033
108.80673432,69.37552013,61.18650146,-147.69693774,146.69042657,3.90911859
-42.75218770,77.48255291,-177.87368357,-127.83177460,-27.29685371,49.01107921
3.24334648,-48.95982951,-3.69383476,18.30599838,-2.09669856,0.41252935,-0.16846255

>  <HEADER>
                                                                          

>  <MASTER>
        0    0    0    0    0    0    0    0   98    0   98    0          

>  <Name>
Ritonavir.pdb

>  <RI>
-1.04723e+09

>  <Rbt.Current_Directory>
/root/miniconda3/envs/rdock/share/rxdock-2013.1.1_148c5bd1-0/data/ligands/prepped_ligands/Ritonavir

>  <Rbt.Executable>
rbdock/0.1.0

>  <Rbt.Library>
librxdock.so/0.1.0

>  <Rbt.Parameter_File>
/root/miniconda3/envs/rdock/share/rxdock-2013.1.1_148c5bd1-0/data/scripts/dock.prm

>  <Rbt.Receptor>
def.prm

>  <SCORE>
9.546

>  <SCORE.INTER>
-3.67741

>  <SCORE.INTER.CONST>
1

>  <SCORE.INTER.POLAR>
-0.419989

>  <SCORE.INTER.REPUL>
0.138913

>  <SCORE.INTER.ROT>
18

>  <SCORE.INTER.VDW>
-26.344

>  <SCORE.INTER.norm>
-0.0735482

>  <SCORE.INTRA>
9.83177

>  <SCORE.INTRA.DIHEDRAL>
16.2379

>  <SCORE.INTRA.DIHEDRAL.0>
28.8748

>  <SCORE.INTRA.POLAR>
0

>  <SCORE.INTRA.POLAR.0>
0

>  <SCORE.INTRA.REPUL>
0

>  <SCORE.INTRA.REPUL.0>
0

>  <SCORE.INTRA.VDW>
1.71281

>  <SCORE.INTRA.VDW.0>
-1.74536

>  <SCORE.INTRA.norm>
0.196635

>  <SCORE.RESTR>
3.93339

>  <SCORE.RESTR.CAVITY>
3.93339

>  <SCORE.RESTR.norm>
0.0786678

>  <SCORE.SYSTEM>
-0.541746

>  <SCORE.SYSTEM.CONST>
0

>  <SCORE.SYSTEM.DIHEDRAL>
0.958466

>  <SCORE.SYSTEM.VDW>
-1.02098

>  <SCORE.SYSTEM.norm>
-0.0108349

>  <SCORE.heavy>
50

>  <SCORE.norm>
0.19092

>  <TITLE>
    Ritonavir_D                                                           

$$$$
Ritonavir.pdb
  RxDock  02242112103D
librxdock.so/0.1.0
 54 57  0  0  0  0  0  0  0  0999 V2000
  -42.9374   -2.2802   19.6029 S   0  0  0  0  0  0
  -49.9033   -8.9944   19.7809 S   0  0  0  0  0  0
  -53.8433   -4.0564   18.8365 O   0  0  0  0  0  0
  -49.0919   -3.5488   15.8007 O   0  0  0  0  0  0
  -49.9020   -5.7882   20.1786 O   0  0  0  0  0  0
  -49.6394   -5.9310   17.9499 O   0  0  0  0  0  0
  -46.9402    0.2017   16.3801 O   0  0  0  0  0  0
  -50.5080   -1.9596   16.6069 N   0  0  0  0  0  0
  -51.7194   -5.5678   18.8350 N   0  0  0  0  0  0
  -47.3717   -1.5364   15.0171 N   0  0  0  0  0  0
  -45.1947   -1.0314   15.6530 N   0  0  0  0  0  0
  -44.5910   -0.4298   18.9078 N   0  0  0  0  0  0
  -47.9208   -9.4326   18.1981 N   0  0  0  0  0  0
  -51.2147   -2.9072   17.4833 C   0  0  0  0  0  0
  -52.6477   -3.0720   16.9351 C   0  0  0  0  0  0
  -53.3592   -4.3160   17.5082 C   0  0  0  0  0  0
  -52.3813   -5.5078   17.5230 C   0  0  0  0  0  0
  -51.2410   -2.4246   18.9505 C   0  0  0  0  0  0
  -53.1313   -6.8304   17.2549 C   0  0  0  0  0  0
  -48.8172   -1.2724   15.0728 C   0  0  0  0  0  0
  -49.4312   -1.1517   13.6613 C   0  0  0  0  0  0
  -49.4797   -2.3886   15.8556 C   0  0  0  0  0  0
  -49.9360   -1.8213   19.4508 C   0  0  0  0  0  0
  -54.0094   -6.8298   16.0119 C   0  0  0  0  0  0
  -50.9661   -1.1455   13.7509 C   0  0  0  0  0  0
  -48.9943    0.1601   12.9863 C   0  0  0  0  0  0
  -49.1753   -1.0287   18.6183 C   0  0  0  0  0  0
  -49.5049   -2.0630   20.7366 C   0  0  0  0  0  0
  -50.3884   -5.7711   18.9117 C   0  0  0  0  0  0
  -54.9054   -7.8537   15.7955 C   0  0  0  0  0  0
  -53.9140   -5.8070   15.0922 C   0  0  0  0  0  0
  -46.5195   -0.7476   15.7088 C   0  0  0  0  0  0
  -47.9945   -0.4836   19.0664 C   0  0  0  0  0  0
  -48.3244   -1.5175   21.1878 C   0  0  0  0  0  0
  -55.6993   -7.8560   14.6714 C   0  0  0  0  0  0
  -54.7072   -5.8072   13.9681 C   0  0  0  0  0  0
  -47.5681   -0.7269   20.3525 C   0  0  0  0  0  0
  -55.6009   -6.8323   13.7577 C   0  0  0  0  0  0
  -44.2497   -0.1957   16.4120 C   0  0  0  0  0  0
  -44.6576   -2.1508   14.8548 C   0  0  0  0  0  0
  -48.6413   -6.4521   20.3751 C   0  0  0  0  0  0
  -43.9318   -0.8284   17.7522 C   0  0  0  0  0  0
  -48.6322   -7.7669   19.6221 C   0  0  0  0  0  0
  -44.2005   -1.0841   19.9661 C   0  0  0  0  0  0
  -43.0335   -1.7811   17.9053 C   0  0  0  0  0  0
  -44.7620   -0.8387   21.3508 C   0  0  0  0  0  0
  -44.8336    0.6584   21.6859 C   0  0  0  0  0  0
  -43.9209   -1.5388   22.4270 C   0  0  0  0  0  0
  -47.7154   -8.1836   18.7698 C   0  0  0  0  0  0
  -49.0184   -9.9984   18.6133 C   0  0  0  0  0  0
  -53.0958   -3.7849   19.4517 H   0  0  0  0  0  0
  -50.7632   -1.1170   16.5860 H   0  0  0  0  0  0
  -52.1994   -5.4629   19.5672 H   0  0  0  0  0  0
  -47.0759   -2.2188   14.5517 H   0  0  0  0  0  0
  1 44  1  0  0  0
  1 45  1  0  0  0
  2 43  1  0  0  0
  2 50  1  0  0  0
  3 16  1  0  0  0
  3 51  1  0  0  0
  4 22  2  0  0  0
  5 29  1  0  0  0
  5 41  1  0  0  0
  6 29  2  0  0  0
  7 32  2  0  0  0
  8 14  1  0  0  0
  8 22  1  0  0  0
  8 52  1  0  0  0
  9 17  1  0  0  0
  9 29  1  0  0  0
  9 53  1  0  0  0
 10 20  1  0  0  0
 10 32  1  0  0  0
 10 54  1  0  0  0
 11 32  1  0  0  0
 11 39  1  0  0  0
 11 40  1  0  0  0
 12 42  1  0  0  0
 12 44  2  0  0  0
 13 49  1  0  0  0
 13 50  2  0  0  0
 14 15  1  0  0  0
 14 18  1  0  0  0
 15 16  1  0  0  0
 16 17  1  0  0  0
 17 19  1  0  0  0
 18 23  1  0  0  0
 19 24  1  0  0  0
 20 21  1  0  0  0
 20 22  1  0  0  0
 21 25  1  0  0  0
 21 26  1  0  0  0
 23 27  2  0  0  0
 23 28  1  0  0  0
 24 30  2  0  0  0
 24 31  1  0  0  0
 27 33  1  0  0  0
 28 34  2  0  0  0
 30 35  1  0  0  0
 31 36  2  0  0  0
 33 37  2  0  0  0
 34 37  1  0  0  0
 35 38  2  0  0  0
 36 38  1  0  0  0
 39 42  1  0  0  0
 41 43  1  0  0  0
 42 45  2  0  0  0
 43 49  2  0  0  0
 44 46  1  0  0  0
 46 47  1  0  0  0
 46 48  1  0  0  0
M  END
>  <CHROM.0>
35.13392593,-174.84785576,72.48706554

>  <CHROM.1>
-58.02695329,-21.52137364,-44.33424710,-113.32559730,-135.13420631,127.34486920
95.88024831,163.80915453,-41.70718245,78.68367528,-28.84822936,172.31352403
38.31519817,-168.44620800,169.24134278,-35.33800609,-97.51025957,-52.05177992
133.00498395,-48.99168906,-3.60901615,17.73682238,-0.31931006,0.56215842
2.47902057

>  <HEADER>
                                                                          

>  <MASTER>
        0    0    0    0    0    0    0    0   98    0   98    0          

>  <Name>
Ritonavir.pdb

>  <RI>
-1.04723e+09

>  <Rbt.Current_Directory>
/root/miniconda3/envs/rdock/share/rxdock-2013.1.1_148c5bd1-0/data/ligands/prepped_ligands/Ritonavir

>  <Rbt.Executable>
rbdock/0.1.0

>  <Rbt.Library>
librxdock.so/0.1.0

>  <Rbt.Parameter_File>
/root/miniconda3/envs/rdock/share/rxdock-2013.1.1_148c5bd1-0/data/scripts/dock.prm

>  <Rbt.Receptor>
def.prm

>  <SCORE>
-11.9774

>  <SCORE.INTER>
-8.32712

>  <SCORE.INTER.CONST>
1

>  <SCORE.INTER.POLAR>
-0.245637

>  <SCORE.INTER.REPUL>
0.0390763

>  <SCORE.INTER.ROT>
18

>  <SCORE.INTER.VDW>
-31.0873

>  <SCORE.INTER.norm>
-0.166542

>  <SCORE.INTRA>
-3.81347

>  <SCORE.INTRA.DIHEDRAL>
-6.64815

>  <SCORE.INTRA.DIHEDRAL.0>
28.8748

>  <SCORE.INTRA.POLAR>
0

>  <SCORE.INTRA.POLAR.0>
0

>  <SCORE.INTRA.REPUL>
0.0134655

>  <SCORE.INTRA.REPUL.0>
0

>  <SCORE.INTRA.VDW>
-0.556722

>  <SCORE.INTRA.VDW.0>
-1.74536

>  <SCORE.INTRA.norm>
-0.0762694

>  <SCORE.RESTR>
0.0492577

>  <SCORE.RESTR.CAVITY>
0.0492577

>  <SCORE.RESTR.norm>
0.000985154

>  <SCORE.SYSTEM>
0.113888

>  <SCORE.SYSTEM.CONST>
0

>  <SCORE.SYSTEM.DIHEDRAL>
1.82762

>  <SCORE.SYSTEM.POLAR>
-0.0181525

>  <SCORE.SYSTEM.VDW>
-0.738201

>  <SCORE.SYSTEM.norm>
0.00227776

>  <SCORE.heavy>
50

>  <SCORE.norm>
-0.239549

>  <TITLE>
    Ritonavir_D                                                           

$$$$
Ritonavir.pdb
  RxDock  02242112103D
librxdock.so/0.1.0
 54 57  0  0  0  0  0  0  0  0999 V2000
  -48.9795   -3.0257   12.9667 S   0  0  0  0  0  0
  -51.3955   -8.8519   19.7999 S   0  0  0  0  0  0
  -49.1618   -3.8701   21.4269 O   0  0  0  0  0  0
  -46.5427   -1.0086   22.2833 O   0  0  0  0  0  0
  -48.2129   -7.2291   18.6630 O   0  0  0  0  0  0
  -49.8405   -6.3213   17.4048 O   0  0  0  0  0  0
  -45.1968   -2.7248   18.2713 O   0  0  0  0  0  0
  -47.7597   -1.0970   20.3619 N   0  0  0  0  0  0
  -49.3165   -5.4006   19.4344 N   0  0  0  0  0  0
  -45.8571   -0.6360   18.7867 N   0  0  0  0  0  0
  -46.1646   -1.4903   16.6480 N   0  0  0  0  0  0
  -48.5507   -2.7949   15.4974 N   0  0  0  0  0  0
  -50.4695   -8.5277   22.1799 N   0  0  0  0  0  0
  -49.0418   -1.2148   21.0744 C   0  0  0  0  0  0
  -50.0242   -1.9629   20.1492 C   0  0  0  0  0  0
  -50.2330   -3.4318   20.5747 C   0  0  0  0  0  0
  -50.3133   -4.3251   19.3207 C   0  0  0  0  0  0
  -49.6077    0.1661   21.4734 C   0  0  0  0  0  0
  -51.7248   -4.9337   19.1757 C   0  0  0  0  0  0
  -45.4022   -0.7925   20.1762 C   0  0  0  0  0  0
  -44.5645    0.4175   20.6434 C   0  0  0  0  0  0
  -46.6182   -0.9807   21.0615 C   0  0  0  0  0  0
  -48.8152    1.3581   20.9554 C   0  0  0  0  0  0
  -52.7922   -4.2956   20.0529 C   0  0  0  0  0  0
  -44.9359    1.6653   19.8256 C   0  0  0  0  0  0
  -44.8349    0.7290   22.1256 C   0  0  0  0  0  0
  -47.9059    1.9936   21.7735 C   0  0  0  0  0  0
  -49.0009    1.8114   19.6679 C   0  0  0  0  0  0
  -49.1777   -6.3010   18.4401 C   0  0  0  0  0  0
  -52.9638   -4.7168   21.3533 C   0  0  0  0  0  0
  -53.5970   -3.2937   19.5532 C   0  0  0  0  0  0
  -45.7153   -1.6601   17.9160 C   0  0  0  0  0  0
  -47.1896    3.0724   21.3095 C   0  0  0  0  0  0
  -48.2842    2.8897   19.2008 C   0  0  0  0  0  0
  -53.9294   -4.1423   22.1478 C   0  0  0  0  0  0
  -54.5626   -2.7177   20.3460 C   0  0  0  0  0  0
  -47.3776    3.5213   20.0217 C   0  0  0  0  0  0
  -54.7287   -3.1420   21.6445 C   0  0  0  0  0  0
  -46.0356   -2.5984   15.6871 C   0  0  0  0  0  0
  -46.7800   -0.2301   16.1879 C   0  0  0  0  0  0
  -48.6573   -8.5789   18.8853 C   0  0  0  0  0  0
  -47.3079   -2.7573   14.8787 C   0  0  0  0  0  0
  -49.6529   -8.6087   20.0271 C   0  0  0  0  0  0
  -49.5348   -2.9267   14.6519 C   0  0  0  0  0  0
  -47.3193   -2.8620   13.5645 C   0  0  0  0  0  0
  -50.9884   -2.9954   15.0705 C   0  0  0  0  0  0
  -51.4707   -4.4435   15.2403 C   0  0  0  0  0  0
  -51.8972   -2.2961   14.0502 C   0  0  0  0  0  0
  -49.3877   -8.4630   21.3113 C   0  0  0  0  0  0
  -51.5977   -8.7278   21.5601 C   0  0  0  0  0  0
  -48.4669   -3.1522   21.5396 H   0  0  0  0  0  0
  -47.7525   -1.0993   19.4813 H   0  0  0  0  0  0
  -48.8084   -5.4455   20.1536 H   0  0  0  0  0  0
  -46.2375    0.1150   18.5398 H   0  0  0  0  0  0
  1 44  1  0  0  0
  1 45  1  0  0  0
  2 43  1  0  0  0
  2 50  1  0  0  0
  3 16  1  0  0  0
  3 51  1  0  0  0
  4 22  2  0  0  0
  5 29  1  0  0  0
  5 41  1  0  0  0
  6 29  2  0  0  0
  7 32  2  0  0  0
  8 14  1  0  0  0
  8 22  1  0  0  0
  8 52  1  0  0  0
  9 17  1  0  0  0
  9 29  1  0  0  0
  9 53  1  0  0  0
 10 20  1  0  0  0
 10 32  1  0  0  0
 10 54  1  0  0  0
 11 32  1  0  0  0
 11 39  1  0  0  0
 11 40  1  0  0  0
 12 42  1  0  0  0
 12 44  2  0  0  0
 13 49  1  0  0  0
 13 50  2  0  0  0
 14 15  1  0  0  0
 14 18  1  0  0  0
 15 16  1  0  0  0
 16 17  1  0  0  0
 17 19  1  0  0  0
 18 23  1  0  0  0
 19 24  1  0  0  0
 20 21  1  0  0  0
 20 22  1  0  0  0
 21 25  1  0  0  0
 21 26  1  0  0  0
 23 27  2  0  0  0
 23 28  1  0  0  0
 24 30  2  0  0  0
 24 31  1  0  0  0
 27 33  1  0  0  0
 28 34  2  0  0  0
 30 35  1  0  0  0
 31 36  2  0  0  0
 33 37  2  0  0  0
 34 37  1  0  0  0
 35 38  2  0  0  0
 36 38  1  0  0  0
 39 42  1  0  0  0
 41 43  1  0  0  0
 42 45  2  0  0  0
 43 49  2  0  0  0
 44 46  1  0  0  0
 46 47  1  0  0  0
 46 48  1  0  0  0
M  END
>  <CHROM.0>
114.90414784,-32.05819705,43.26681979

>  <CHROM.1>
-2.88124115,-68.63042199,-55.13791267,-154.09818144,-178.73816917,132.79814641
136.39533773,103.90700073,5.19340362,-19.08878003,3.51295735,134.18178902
-98.21088551,-85.12229249,24.89779533,-172.91174592,-48.45936011,106.72676872
85.57648820,-49.03925167,-2.94873646,18.95013532,-0.34569364,-0.99084498
-1.98430629

>  <HEADER>
                                                                          

>  <MASTER>
        0    0    0    0    0    0    0    0   98    0   98    0          

>  <Name>
Ritonavir.pdb

>  <RI>
-1.04723e+09

>  <Rbt.Current_Directory>
/root/miniconda3/envs/rdock/share/rxdock-2013.1.1_148c5bd1-0/data/ligands/prepped_ligands/Ritonavir

>  <Rbt.Executable>
rbdock/0.1.0

>  <Rbt.Library>
librxdock.so/0.1.0

>  <Rbt.Parameter_File>
/root/miniconda3/envs/rdock/share/rxdock-2013.1.1_148c5bd1-0/data/scripts/dock.prm

>  <Rbt.Receptor>
def.prm

>  <SCORE>
52.4082

>  <SCORE.INTER>
8.98554

>  <SCORE.INTER.CONST>
1

>  <SCORE.INTER.POLAR>
-0.195943

>  <SCORE.INTER.REPUL>
0.124833

>  <SCORE.INTER.ROT>
18

>  <SCORE.INTER.VDW>
-14.3724

>  <SCORE.INTER.norm>
0.179711

>  <SCORE.INTRA>
32.6983

>  <SCORE.INTRA.DIHEDRAL>
38.0207

>  <SCORE.INTRA.DIHEDRAL.0>
28.8748

>  <SCORE.INTRA.POLAR>
-0.174334

>  <SCORE.INTRA.POLAR.0>
0

>  <SCORE.INTRA.REPUL>
0

>  <SCORE.INTRA.REPUL.0>
0

>  <SCORE.INTRA.VDW>
14.2807

>  <SCORE.INTRA.VDW.0>
-1.74536

>  <SCORE.INTRA.norm>
0.653966

>  <SCORE.RESTR>
6.81215

>  <SCORE.RESTR.CAVITY>
6.81215

>  <SCORE.RESTR.norm>
0.136243

>  <SCORE.SYSTEM>
3.91223

>  <SCORE.SYSTEM.CONST>
0

>  <SCORE.SYSTEM.DIHEDRAL>
7.40512

>  <SCORE.SYSTEM.VDW>
0.209668

>  <SCORE.SYSTEM.norm>
0.0782446

>  <SCORE.heavy>
50

>  <SCORE.norm>
1.04816

>  <TITLE>
    Ritonavir_D                                                           

$$$$
