Ritonavir.pdb
  RxDock  02242110023D
librxdock.so/0.1.0
 54 57  0  0  0  0  0  0  0  0999 V2000
  -52.3095   -7.0608   17.3993 S   0  0  0  0  0  0
  -45.1291   -2.4224   14.7466 S   0  0  0  0  0  0
  -50.8726   -0.3779   16.5027 O   0  0  0  0  0  0
  -48.1306   -0.4070   19.8920 O   0  0  0  0  0  0
  -47.3121   -3.0593   17.5473 O   0  0  0  0  0  0
  -46.8211   -0.8691   17.4121 O   0  0  0  0  0  0
  -50.2909   -1.9984   18.5612 O   0  0  0  0  0  0
  -50.2400    0.4148   19.6562 N   0  0  0  0  0  0
  -48.4097   -1.7719   16.0326 N   0  0  0  0  0  0
  -51.1631   -1.9188   20.6344 N   0  0  0  0  0  0
  -52.4149   -2.7089   18.8434 N   0  0  0  0  0  0
  -53.4831   -5.0722   16.2550 N   0  0  0  0  0  0
  -43.2785   -1.6359   16.3540 N   0  0  0  0  0  0
  -49.8450    1.3748   18.6133 C   0  0  0  0  0  0
  -48.9337    0.6316   17.6142 C   0  0  0  0  0  0
  -49.6442    0.3335   16.2768 C   0  0  0  0  0  0
  -48.7106   -0.4935   15.3705 C   0  0  0  0  0  0
  -49.1209    2.6037   19.2065 C   0  0  0  0  0  0
  -49.3743   -0.7571   14.0017 C   0  0  0  0  0  0
  -49.9084   -1.3849   21.1846 C   0  0  0  0  0  0
  -48.9033   -2.5102   21.5127 C   0  0  0  0  0  0
  -49.3201   -0.4115   20.1825 C   0  0  0  0  0  0
  -47.6938    2.3458   19.6695 C   0  0  0  0  0  0
  -49.2622    0.3859   13.0032 C   0  0  0  0  0  0
  -47.8506   -2.0041   22.5125 C   0  0  0  0  0  0
  -49.6195   -3.7123   22.1523 C   0  0  0  0  0  0
  -47.4293    2.1139   21.0022 C   0  0  0  0  0  0
  -46.6572    2.3432   18.7623 C   0  0  0  0  0  0
  -47.4812   -1.8249   17.0091 C   0  0  0  0  0  0
  -48.1063    0.5583   12.2736 C   0  0  0  0  0  0
  -50.3143    1.2585   12.8223 C   0  0  0  0  0  0
  -51.2508   -2.1976   19.3147 C   0  0  0  0  0  0
  -46.1407    1.8826   21.4244 C   0  0  0  0  0  0
  -45.3671    2.1105   19.1821 C   0  0  0  0  0  0
  -48.0022    1.5921   11.3713 C   0  0  0  0  0  0
  -50.2123    2.2923   11.9204 C   0  0  0  0  0  0
  -45.1079    1.8799   20.5142 C   0  0  0  0  0  0
  -49.0556    2.4590   11.1939 C   0  0  0  0  0  0
  -52.5274   -3.0357   17.4123 C   0  0  0  0  0  0
  -53.5830   -2.9507   19.7127 C   0  0  0  0  0  0
  -46.2427   -3.8557   17.0082 C   0  0  0  0  0  0
  -52.6320   -4.5345   17.2116 C   0  0  0  0  0  0
  -45.1678   -2.9518   16.4394 C   0  0  0  0  0  0
  -53.4401   -6.3749   16.2122 C   0  0  0  0  0  0
  -51.9339   -5.4066   17.9117 C   0  0  0  0  0  0
  -54.2727   -7.2044   15.2575 C   0  0  0  0  0  0
  -54.9134   -6.3457   14.1572 C   0  0  0  0  0  0
  -55.3866   -7.9580   15.9975 C   0  0  0  0  0  0
  -44.1383   -2.4424   17.0884 C   0  0  0  0  0  0
  -43.6461   -1.5152   15.1100 C   0  0  0  0  0  0
  -50.7101   -1.2436   16.9876 H   0  0  0  0  0  0
  -51.0787    0.3874   19.9235 H   0  0  0  0  0  0
  -48.8462   -2.4985   15.7896 H   0  0  0  0  0  0
  -51.8386   -2.0728   21.1725 H   0  0  0  0  0  0
  1 44  1  0  0  0
  1 45  1  0  0  0
  2 43  1  0  0  0
  2 50  1  0  0  0
  3 16  1  0  0  0
  3 51  1  0  0  0
  4 22  2  0  0  0
  5 29  1  0  0  0
  5 41  1  0  0  0
  6 29  2  0  0  0
  7 32  2  0  0  0
  8 14  1  0  0  0
  8 22  1  0  0  0
  8 52  1  0  0  0
  9 17  1  0  0  0
  9 29  1  0  0  0
  9 53  1  0  0  0
 10 20  1  0  0  0
 10 32  1  0  0  0
 10 54  1  0  0  0
 11 32  1  0  0  0
 11 39  1  0  0  0
 11 40  1  0  0  0
 12 42  1  0  0  0
 12 44  2  0  0  0
 13 49  1  0  0  0
 13 50  2  0  0  0
 14 15  1  0  0  0
 14 18  1  0  0  0
 15 16  1  0  0  0
 16 17  1  0  0  0
 17 19  1  0  0  0
 18 23  1  0  0  0
 19 24  1  0  0  0
 20 21  1  0  0  0
 20 22  1  0  0  0
 21 25  1  0  0  0
 21 26  1  0  0  0
 23 27  2  0  0  0
 23 28  1  0  0  0
 24 30  2  0  0  0
 24 31  1  0  0  0
 27 33  1  0  0  0
 28 34  2  0  0  0
 30 35  1  0  0  0
 31 36  2  0  0  0
 33 37  2  0  0  0
 34 37  1  0  0  0
 35 38  2  0  0  0
 36 38  1  0  0  0
 39 42  1  0  0  0
 41 43  1  0  0  0
 42 45  2  0  0  0
 43 49  2  0  0  0
 44 46  1  0  0  0
 46 47  1  0  0  0
 46 48  1  0  0  0
M  END
>  <CHROM.0>
-109.35501547,66.12313520,-80.01664714

>  <CHROM.1>
-58.57961429,-84.46006651,26.33729038,43.87628918,-79.38594346,-84.01596568
111.99176558,106.39975633,74.03618875,-54.43469479,-60.41862250,-157.86581252
-98.48381918,80.82908467,-160.01955979,-135.55305398,140.69128589,-91.62752729
-167.48619053,-49.23558504,-1.66273722,17.32526707,3.11311947,-0.75041037
-1.53203116

>  <HEADER>
                                                                          

>  <MASTER>
        0    0    0    0    0    0    0    0   98    0   98    0          

>  <Name>
Ritonavir.pdb

>  <RI>
-1.00668e+09

>  <Rbt.Current_Directory>
/root/miniconda3/envs/rdock/share/rxdock-2013.1.1_148c5bd1-0/data/ligands/prepped_ligands/Ritonavir

>  <Rbt.Executable>
rbdock/0.1.0

>  <Rbt.Library>
librxdock.so/0.1.0

>  <Rbt.Parameter_File>
/root/miniconda3/envs/rdock/share/rxdock-2013.1.1_148c5bd1-0/data/scripts/dock.prm

>  <Rbt.Receptor>
def.prm

>  <SCORE>
5.29171

>  <SCORE.INTER>
-8.69345

>  <SCORE.INTER.CONST>
1

>  <SCORE.INTER.POLAR>
-0.583399

>  <SCORE.INTER.REPUL>
0

>  <SCORE.INTER.ROT>
18

>  <SCORE.INTER.VDW>
-30.1099

>  <SCORE.INTER.norm>
-0.173869

>  <SCORE.INTRA>
10.0415

>  <SCORE.INTRA.DIHEDRAL>
18.6331

>  <SCORE.INTRA.DIHEDRAL.0>
28.8748

>  <SCORE.INTRA.POLAR>
-0.491941

>  <SCORE.INTRA.POLAR.0>
0

>  <SCORE.INTRA.REPUL>
0.368597

>  <SCORE.INTRA.REPUL.0>
0

>  <SCORE.INTRA.VDW>
0.554514

>  <SCORE.INTRA.VDW.0>
-1.74536

>  <SCORE.INTRA.norm>
0.200829

>  <SCORE.RESTR>
2.165

>  <SCORE.RESTR.CAVITY>
2.165

>  <SCORE.RESTR.norm>
0.0433001

>  <SCORE.SYSTEM>
1.77869

>  <SCORE.SYSTEM.CONST>
0

>  <SCORE.SYSTEM.DIHEDRAL>
4.43331

>  <SCORE.SYSTEM.VDW>
-0.437967

>  <SCORE.SYSTEM.norm>
0.0355738

>  <SCORE.heavy>
50

>  <SCORE.norm>
0.105834

>  <TITLE>
    Ritonavir_D                                                           

$$$$
Ritonavir.pdb
  RxDock  02242110033D
librxdock.so/0.1.0
 54 57  0  0  0  0  0  0  0  0999 V2000
  -43.1328    1.0419   18.3751 S   0  0  0  0  0  0
  -48.9893   -8.7772   17.1648 S   0  0  0  0  0  0
  -52.0822   -2.5043   14.7604 O   0  0  0  0  0  0
  -48.9328   -2.0375   19.5709 O   0  0  0  0  0  0
  -48.5937   -5.6315   16.7877 O   0  0  0  0  0  0
  -48.1893   -3.6343   17.7386 O   0  0  0  0  0  0
  -47.8309    1.6148   19.5598 O   0  0  0  0  0  0
  -51.0946   -1.7546   18.9171 N   0  0  0  0  0  0
  -49.6605   -3.7917   15.9915 N   0  0  0  0  0  0
  -48.9183    0.2511   20.9821 N   0  0  0  0  0  0
  -46.8907    1.2196   21.5737 N   0  0  0  0  0  0
  -44.8686    0.0745   20.0161 N   0  0  0  0  0  0
  -49.0737   -9.1668   19.7081 N   0  0  0  0  0  0
  -51.2126   -3.1289   18.4046 C   0  0  0  0  0  0
  -52.1002   -3.0833   17.1432 C   0  0  0  0  0  0
  -51.5099   -2.1812   16.0387 C   0  0  0  0  0  0
  -49.9788   -2.3558   15.9944 C   0  0  0  0  0  0
  -51.8078   -4.0876   19.4595 C   0  0  0  0  0  0
  -49.3912   -1.6876   14.7327 C   0  0  0  0  0  0
  -50.0169    0.0619   20.0233 C   0  0  0  0  0  0
  -49.9589    1.0940   18.8763 C   0  0  0  0  0  0
  -49.9432   -1.3518   19.4812 C   0  0  0  0  0  0
  -51.8743   -5.5478   19.0344 C   0  0  0  0  0  0
  -47.8717   -1.6146   14.6934 C   0  0  0  0  0  0
  -49.3970    0.4394   17.6037 C   0  0  0  0  0  0
  -51.3650    1.6265   18.5496 C   0  0  0  0  0  0
  -52.1164   -5.8755   17.7176 C   0  0  0  0  0  0
  -51.6946   -6.5516   19.9605 C   0  0  0  0  0  0
  -48.7853   -4.2916   16.8875 C   0  0  0  0  0  0
  -47.1204   -2.7681   14.7495 C   0  0  0  0  0  0
  -47.2350   -0.3949   14.6040 C   0  0  0  0  0  0
  -47.8767    1.0495   20.6585 C   0  0  0  0  0  0
  -52.1793   -7.1939   17.3302 C   0  0  0  0  0  0
  -51.7556   -7.8716   19.5751 C   0  0  0  0  0  0
  -45.7462   -2.7043   14.7157 C   0  0  0  0  0  0
  -45.8612   -0.3290   14.5697 C   0  0  0  0  0  0
  -51.9980   -8.1938   18.2589 C   0  0  0  0  0  0
  -45.1162   -1.4847   14.6251 C   0  0  0  0  0  0
  -45.7547    2.0981   21.2491 C   0  0  0  0  0  0
  -46.9091    0.5532   22.8906 C   0  0  0  0  0  0
  -47.7353   -6.2340   17.7719 C   0  0  0  0  0  0
  -44.8520    1.4483   20.2193 C   0  0  0  0  0  0
  -48.3440   -7.5349   18.2547 C   0  0  0  0  0  0
  -44.0374   -0.3113   19.0883 C   0  0  0  0  0  0
  -44.0149    2.1289   19.4616 C   0  0  0  0  0  0
  -43.8628   -1.7579   18.6762 C   0  0  0  0  0  0
  -42.7466   -2.4519   19.4705 C   0  0  0  0  0  0
  -43.5424   -1.8778   17.1798 C   0  0  0  0  0  0
  -48.4829   -7.9261   19.5070 C   0  0  0  0  0  0
  -49.4005   -9.7523   18.5912 C   0  0  0  0  0  0
  -52.0550   -1.7155   14.1375 H   0  0  0  0  0  0
  -51.7826   -1.2087   18.8534 H   0  0  0  0  0  0
  -50.0520   -4.3207   15.4046 H   0  0  0  0  0  0
  -48.9589   -0.1394   21.7667 H   0  0  0  0  0  0
  1 44  1  0  0  0
  1 45  1  0  0  0
  2 43  1  0  0  0
  2 50  1  0  0  0
  3 16  1  0  0  0
  3 51  1  0  0  0
  4 22  2  0  0  0
  5 29  1  0  0  0
  5 41  1  0  0  0
  6 29  2  0  0  0
  7 32  2  0  0  0
  8 14  1  0  0  0
  8 22  1  0  0  0
  8 52  1  0  0  0
  9 17  1  0  0  0
  9 29  1  0  0  0
  9 53  1  0  0  0
 10 20  1  0  0  0
 10 32  1  0  0  0
 10 54  1  0  0  0
 11 32  1  0  0  0
 11 39  1  0  0  0
 11 40  1  0  0  0
 12 42  1  0  0  0
 12 44  2  0  0  0
 13 49  1  0  0  0
 13 50  2  0  0  0
 14 15  1  0  0  0
 14 18  1  0  0  0
 15 16  1  0  0  0
 16 17  1  0  0  0
 17 19  1  0  0  0
 18 23  1  0  0  0
 19 24  1  0  0  0
 20 21  1  0  0  0
 20 22  1  0  0  0
 21 25  1  0  0  0
 21 26  1  0  0  0
 23 27  2  0  0  0
 23 28  1  0  0  0
 24 30  2  0  0  0
 24 31  1  0  0  0
 27 33  1  0  0  0
 28 34  2  0  0  0
 30 35  1  0  0  0
 31 36  2  0  0  0
 33 37  2  0  0  0
 34 37  1  0  0  0
 35 38  2  0  0  0
 36 38  1  0  0  0
 39 42  1  0  0  0
 41 43  1  0  0  0
 42 45  2  0  0  0
 43 49  2  0  0  0
 44 46  1  0  0  0
 46 47  1  0  0  0
 46 48  1  0  0  0
M  END
>  <CHROM.0>
-168.65652208,147.50978240,-122.46561845

>  <CHROM.1>
154.07299315,3.76337467,137.07015264,-144.84411673,-128.05172025,-13.30727721
-72.07713791,59.78066838,-176.09059293,160.39678850,-73.83453872,-68.54078980
-34.13545138,59.26958305,102.85816871,-17.81252007,-20.63236335,47.48793375
87.91445509,-48.32725789,-2.68490267,18.13160389,-0.99966228,-0.12000973
-2.91301768

>  <HEADER>
                                                                          

>  <MASTER>
        0    0    0    0    0    0    0    0   98    0   98    0          

>  <Name>
Ritonavir.pdb

>  <RI>
-1.00668e+09

>  <Rbt.Current_Directory>
/root/miniconda3/envs/rdock/share/rxdock-2013.1.1_148c5bd1-0/data/ligands/prepped_ligands/Ritonavir

>  <Rbt.Executable>
rbdock/0.1.0

>  <Rbt.Library>
librxdock.so/0.1.0

>  <Rbt.Parameter_File>
/root/miniconda3/envs/rdock/share/rxdock-2013.1.1_148c5bd1-0/data/scripts/dock.prm

>  <Rbt.Receptor>
def.prm

>  <SCORE>
4.55303

>  <SCORE.INTER>
-6.23005

>  <SCORE.INTER.CONST>
1

>  <SCORE.INTER.POLAR>
-0.0357817

>  <SCORE.INTER.REPUL>
0.0779603

>  <SCORE.INTER.ROT>
18

>  <SCORE.INTER.VDW>
-29.8982

>  <SCORE.INTER.norm>
-0.124601

>  <SCORE.INTRA>
6.10377

>  <SCORE.INTRA.DIHEDRAL>
-3.28863

>  <SCORE.INTRA.DIHEDRAL.0>
28.8748

>  <SCORE.INTRA.POLAR>
0

>  <SCORE.INTRA.POLAR.0>
0

>  <SCORE.INTRA.REPUL>
0.0417834

>  <SCORE.INTRA.REPUL.0>
0

>  <SCORE.INTRA.VDW>
7.53917

>  <SCORE.INTRA.VDW.0>
-1.74536

>  <SCORE.INTRA.norm>
0.122075

>  <SCORE.RESTR>
1.00063

>  <SCORE.RESTR.CAVITY>
1.00063

>  <SCORE.RESTR.norm>
0.0200125

>  <SCORE.SYSTEM>
3.67868

>  <SCORE.SYSTEM.CONST>
0

>  <SCORE.SYSTEM.DIHEDRAL>
7.95141

>  <SCORE.SYSTEM.VDW>
-0.29703

>  <SCORE.SYSTEM.norm>
0.0735735

>  <SCORE.heavy>
50

>  <SCORE.norm>
0.0910605

>  <TITLE>
    Ritonavir_D                                                           

$$$$
Ritonavir.pdb
  RxDock  02242110033D
librxdock.so/0.1.0
 54 57  0  0  0  0  0  0  0  0999 V2000
  -42.5321   -0.2966   20.8861 S   0  0  0  0  0  0
  -49.4954   -8.7060   20.3467 S   0  0  0  0  0  0
  -52.6187   -2.4654   17.9082 O   0  0  0  0  0  0
  -48.6199   -3.0977   18.5749 O   0  0  0  0  0  0
  -50.2555   -6.7728   17.5726 O   0  0  0  0  0  0
  -50.4342   -5.9924   15.4713 O   0  0  0  0  0  0
  -47.0615   -1.8878   22.0309 O   0  0  0  0  0  0
  -50.0204   -1.3036   18.5516 N   0  0  0  0  0  0
  -51.7961   -5.1680   17.1167 N   0  0  0  0  0  0
  -48.8746   -0.9078   21.1268 N   0  0  0  0  0  0
  -47.2360    0.3578   22.1815 N   0  0  0  0  0  0
  -44.8827    0.7250   20.6169 N   0  0  0  0  0  0
  -51.9014   -8.7613   21.2606 N   0  0  0  0  0  0
  -50.0851   -1.2609   17.0822 C   0  0  0  0  0  0
  -50.5562   -2.6468   16.5941 C   0  0  0  0  0  0
  -52.0933   -2.7867   16.6095 C   0  0  0  0  0  0
  -52.4836   -4.2264   16.2201 C   0  0  0  0  0  0
  -48.7215   -0.8934   16.4562 C   0  0  0  0  0  0
  -54.0111   -4.4237   16.3266 C   0  0  0  0  0  0
  -49.3962   -2.2041   20.6692 C   0  0  0  0  0  0
  -50.8531   -2.4287   21.1286 C   0  0  0  0  0  0
  -49.2929   -2.2572   19.1578 C   0  0  0  0  0  0
  -48.6701   -0.9755   14.9370 C   0  0  0  0  0  0
  -54.5105   -5.8016   15.9165 C   0  0  0  0  0  0
  -51.2698   -3.8863   20.8726 C   0  0  0  0  0  0
  -50.9983   -2.1559   22.6358 C   0  0  0  0  0  0
  -48.4776   -2.1905   14.3152 C   0  0  0  0  0  0
  -48.8139    0.1616   14.1729 C   0  0  0  0  0  0
  -50.8183   -5.9644   16.6389 C   0  0  0  0  0  0
  -53.8076   -6.9299   16.2783 C   0  0  0  0  0  0
  -55.6678   -5.9318   15.1784 C   0  0  0  0  0  0
  -47.6991   -0.8557   21.7922 C   0  0  0  0  0  0
  -48.4284   -2.2681   12.9427 C   0  0  0  0  0  0
  -48.7666    0.0863   12.7994 C   0  0  0  0  0  0
  -54.2566   -8.1766   15.9072 C   0  0  0  0  0  0
  -56.1186   -7.1773   14.8069 C   0  0  0  0  0  0
  -48.5738   -1.1293   12.1829 C   0  0  0  0  0  0
  -55.4127   -8.3008   15.1719 C   0  0  0  0  0  0
  -45.9496    0.4399   22.8930 C   0  0  0  0  0  0
  -47.9754    1.6084   21.9211 C   0  0  0  0  0  0
  -50.2746   -6.2986   18.9303 C   0  0  0  0  0  0
  -44.7923    0.2760   21.9279 C   0  0  0  0  0  0
  -50.6359   -7.4354   19.8647 C   0  0  0  0  0  0
  -43.7941    0.5117   19.9312 C   0  0  0  0  0  0
  -43.6474   -0.2853   22.2631 C   0  0  0  0  0  0
  -43.6351    0.9057   18.4778 C   0  0  0  0  0  0
  -42.8911    2.2400   18.3212 C   0  0  0  0  0  0
  -44.9964    1.0223   17.7783 C   0  0  0  0  0  0
  -51.8053   -7.6465   20.4378 C   0  0  0  0  0  0
  -50.7856   -9.4303   21.3292 C   0  0  0  0  0  0
  -52.2422   -3.0726   18.6156 H   0  0  0  0  0  0
  -50.4636   -0.7052   19.0216 H   0  0  0  0  0  0
  -52.0247   -5.2007   17.9677 H   0  0  0  0  0  0
  -49.3211   -0.1749   20.9445 H   0  0  0  0  0  0
  1 44  1  0  0  0
  1 45  1  0  0  0
  2 43  1  0  0  0
  2 50  1  0  0  0
  3 16  1  0  0  0
  3 51  1  0  0  0
  4 22  2  0  0  0
  5 29  1  0  0  0
  5 41  1  0  0  0
  6 29  2  0  0  0
  7 32  2  0  0  0
  8 14  1  0  0  0
  8 22  1  0  0  0
  8 52  1  0  0  0
  9 17  1  0  0  0
  9 29  1  0  0  0
  9 53  1  0  0  0
 10 20  1  0  0  0
 10 32  1  0  0  0
 10 54  1  0  0  0
 11 32  1  0  0  0
 11 39  1  0  0  0
 11 40  1  0  0  0
 12 42  1  0  0  0
 12 44  2  0  0  0
 13 49  1  0  0  0
 13 50  2  0  0  0
 14 15  1  0  0  0
 14 18  1  0  0  0
 15 16  1  0  0  0
 16 17  1  0  0  0
 17 19  1  0  0  0
 18 23  1  0  0  0
 19 24  1  0  0  0
 20 21  1  0  0  0
 20 22  1  0  0  0
 21 25  1  0  0  0
 21 26  1  0  0  0
 23 27  2  0  0  0
 23 28  1  0  0  0
 24 30  2  0  0  0
 24 31  1  0  0  0
 27 33  1  0  0  0
 28 34  2  0  0  0
 30 35  1  0  0  0
 31 36  2  0  0  0
 33 37  2  0  0  0
 34 37  1  0  0  0
 35 38  2  0  0  0
 36 38  1  0  0  0
 39 42  1  0  0  0
 41 43  1  0  0  0
 42 45  2  0  0  0
 43 49  2  0  0  0
 44 46  1  0  0  0
 46 47  1  0  0  0
 46 48  1  0  0  0
M  END
>  <CHROM.0>
-62.32051429,-62.90581642,-61.19172140

>  <CHROM.1>
-59.71356623,152.11443860,137.54778188,54.62014444,-111.08254314,127.94834854
76.48533018,84.48458970,173.71272440,-53.86935065,-66.85345948,-61.67635700
-81.54051627,40.66601606,-169.08384567,119.02944143,32.24620773,77.14913719
-82.23847007,-49.34262563,-3.10867562,18.45600289,-0.04104469,0.77463794
2.06967993

>  <HEADER>
                                                                          

>  <MASTER>
        0    0    0    0    0    0    0    0   98    0   98    0          

>  <Name>
Ritonavir.pdb

>  <RI>
-1.00668e+09

>  <Rbt.Current_Directory>
/root/miniconda3/envs/rdock/share/rxdock-2013.1.1_148c5bd1-0/data/ligands/prepped_ligands/Ritonavir

>  <Rbt.Executable>
rbdock/0.1.0

>  <Rbt.Library>
librxdock.so/0.1.0

>  <Rbt.Parameter_File>
/root/miniconda3/envs/rdock/share/rxdock-2013.1.1_148c5bd1-0/data/scripts/dock.prm

>  <Rbt.Receptor>
def.prm

>  <SCORE>
9.29451

>  <SCORE.INTER>
12.1741

>  <SCORE.INTER.CONST>
1

>  <SCORE.INTER.POLAR>
-0.290611

>  <SCORE.INTER.REPUL>
0.00145645

>  <SCORE.INTER.ROT>
18

>  <SCORE.INTER.VDW>
-10.2451

>  <SCORE.INTER.norm>
0.243482

>  <SCORE.INTRA>
-4.77867

>  <SCORE.INTRA.DIHEDRAL>
-5.06894

>  <SCORE.INTRA.DIHEDRAL.0>
28.8748

>  <SCORE.INTRA.POLAR>
0

>  <SCORE.INTRA.POLAR.0>
0

>  <SCORE.INTRA.REPUL>
0

>  <SCORE.INTRA.REPUL.0>
0

>  <SCORE.INTRA.VDW>
-2.2442

>  <SCORE.INTRA.VDW.0>
-1.74536

>  <SCORE.INTRA.norm>
-0.0955735

>  <SCORE.RESTR>
2.96654

>  <SCORE.RESTR.CAVITY>
2.96654

>  <SCORE.RESTR.norm>
0.0593308

>  <SCORE.SYSTEM>
-1.06744

>  <SCORE.SYSTEM.CONST>
0

>  <SCORE.SYSTEM.DIHEDRAL>
0.0612437

>  <SCORE.SYSTEM.VDW>
-1.09806

>  <SCORE.SYSTEM.norm>
-0.0213488

>  <SCORE.heavy>
50

>  <SCORE.norm>
0.18589

>  <TITLE>
    Ritonavir_D                                                           

$$$$
Ritonavir.pdb
  RxDock  02242110033D
librxdock.so/0.1.0
 54 57  0  0  0  0  0  0  0  0999 V2000
  -44.3540    1.6970   19.9173 S   0  0  0  0  0  0
  -48.2221  -10.0919   18.5839 S   0  0  0  0  0  0
  -49.9124   -3.8619   16.4277 O   0  0  0  0  0  0
  -51.2586   -0.7030   16.3181 O   0  0  0  0  0  0
  -47.6823   -6.1373   18.9919 O   0  0  0  0  0  0
  -49.2316   -6.6431   17.4426 O   0  0  0  0  0  0
  -46.8295    0.3357   15.5025 O   0  0  0  0  0  0
  -50.9091   -2.4871   14.9485 N   0  0  0  0  0  0
  -49.6532   -5.0094   18.9901 N   0  0  0  0  0  0
  -48.1673   -1.4674   15.6579 N   0  0  0  0  0  0
  -46.0133   -1.5021   16.5283 N   0  0  0  0  0  0
  -46.1050    0.4392   18.5055 N   0  0  0  0  0  0
  -49.6767   -9.5108   20.6268 N   0  0  0  0  0  0
  -52.1938   -3.1164   15.2933 C   0  0  0  0  0  0
  -52.2526   -3.2489   16.8294 C   0  0  0  0  0  0
  -50.8693   -3.5377   17.4501 C   0  0  0  0  0  0
  -50.9879   -4.7014   18.4545 C   0  0  0  0  0  0
  -52.3592   -4.4954   14.6171 C   0  0  0  0  0  0
  -51.9414   -4.3278   19.6098 C   0  0  0  0  0  0
  -49.2629   -0.7625   14.9760 C   0  0  0  0  0  0
  -49.1731   -0.9140   13.4421 C   0  0  0  0  0  0
  -50.5798   -1.3046   15.4955 C   0  0  0  0  0  0
  -53.4969   -5.3459   15.1644 C   0  0  0  0  0  0
  -52.3100   -5.4782   20.5354 C   0  0  0  0  0  0
  -48.3866    0.2616   12.8396 C   0  0  0  0  0  0
  -48.4404   -2.2130   13.0638 C   0  0  0  0  0  0
  -54.8037   -4.9339   15.0146 C   0  0  0  0  0  0
  -53.2303   -6.5312   15.8135 C   0  0  0  0  0  0
  -48.8967   -5.9641   18.4113 C   0  0  0  0  0  0
  -52.1559   -6.7817   20.1167 C   0  0  0  0  0  0
  -52.8026   -5.2258   21.7982 C   0  0  0  0  0  0
  -46.9955   -0.8306   15.8780 C   0  0  0  0  0  0
  -55.8341   -5.6988   15.5097 C   0  0  0  0  0  0
  -54.2597   -7.2992   16.3086 C   0  0  0  0  0  0
  -52.4900   -7.8234   20.9515 C   0  0  0  0  0  0
  -53.1367   -6.2659   22.6344 C   0  0  0  0  0  0
  -55.5631   -6.8833   16.1568 C   0  0  0  0  0  0
  -52.9799   -7.5658   22.2110 C   0  0  0  0  0  0
  -44.7345   -0.8225   16.7937 C   0  0  0  0  0  0
  -46.1744   -2.8973   16.9822 C   0  0  0  0  0  0
  -47.0846   -7.4386   18.8581 C   0  0  0  0  0  0
  -44.8619    0.1158   17.9773 C   0  0  0  0  0  0
  -48.0514   -8.4986   19.3454 C   0  0  0  0  0  0
  -46.0283    1.2497   19.5242 C   0  0  0  0  0  0
  -43.8249    0.6697   18.5737 C   0  0  0  0  0  0
  -47.2399    1.7557   20.2785 C   0  0  0  0  0  0
  -47.7898    0.7058   21.2551 C   0  0  0  0  0  0
  -48.3655    2.1641   19.3181 C   0  0  0  0  0  0
  -48.8808   -8.4027   20.3670 C   0  0  0  0  0  0
  -49.4625  -10.4876   19.7919 C   0  0  0  0  0  0
  -49.0101   -4.0648   16.8222 H   0  0  0  0  0  0
  -50.3684   -2.8900   14.3821 H   0  0  0  0  0  0
  -49.3520   -4.5602   19.6864 H   0  0  0  0  0  0
  -48.2914   -2.2901   15.9362 H   0  0  0  0  0  0
  1 44  1  0  0  0
  1 45  1  0  0  0
  2 43  1  0  0  0
  2 50  1  0  0  0
  3 16  1  0  0  0
  3 51  1  0  0  0
  4 22  2  0  0  0
  5 29  1  0  0  0
  5 41  1  0  0  0
  6 29  2  0  0  0
  7 32  2  0  0  0
  8 14  1  0  0  0
  8 22  1  0  0  0
  8 52  1  0  0  0
  9 17  1  0  0  0
  9 29  1  0  0  0
  9 53  1  0  0  0
 10 20  1  0  0  0
 10 32  1  0  0  0
 10 54  1  0  0  0
 11 32  1  0  0  0
 11 39  1  0  0  0
 11 40  1  0  0  0
 12 42  1  0  0  0
 12 44  2  0  0  0
 13 49  1  0  0  0
 13 50  2  0  0  0
 14 15  1  0  0  0
 14 18  1  0  0  0
 15 16  1  0  0  0
 16 17  1  0  0  0
 17 19  1  0  0  0
 18 23  1  0  0  0
 19 24  1  0  0  0
 20 21  1  0  0  0
 20 22  1  0  0  0
 21 25  1  0  0  0
 21 26  1  0  0  0
 23 27  2  0  0  0
 23 28  1  0  0  0
 24 30  2  0  0  0
 24 31  1  0  0  0
 27 33  1  0  0  0
 28 34  2  0  0  0
 30 35  1  0  0  0
 31 36  2  0  0  0
 33 37  2  0  0  0
 34 37  1  0  0  0
 35 38  2  0  0  0
 36 38  1  0  0  0
 39 42  1  0  0  0
 41 43  1  0  0  0
 42 45  2  0  0  0
 43 49  2  0  0  0
 44 46  1  0  0  0
 46 47  1  0  0  0
 46 48  1  0  0  0
M  END
>  <CHROM.0>
172.34761666,-12.69737586,-156.92900463

>  <CHROM.1>
-179.19402306,-26.51240164,-53.94735454,-55.38932995,-93.39173318,88.15787432
78.33634701,-34.67108178,166.59693214,-10.90025109,55.37375842,-69.20148990
65.14512152,-19.68766526,-92.60865887,102.04904609,-11.88035471,142.89763474
-101.95157074,-49.49109490,-3.72725417,17.76117218,-0.81413648,0.61295490
2.50348649

>  <HEADER>
                                                                          

>  <MASTER>
        0    0    0    0    0    0    0    0   98    0   98    0          

>  <Name>
Ritonavir.pdb

>  <RI>
-1.00668e+09

>  <Rbt.Current_Directory>
/root/miniconda3/envs/rdock/share/rxdock-2013.1.1_148c5bd1-0/data/ligands/prepped_ligands/Ritonavir

>  <Rbt.Executable>
rbdock/0.1.0

>  <Rbt.Library>
librxdock.so/0.1.0

>  <Rbt.Parameter_File>
/root/miniconda3/envs/rdock/share/rxdock-2013.1.1_148c5bd1-0/data/scripts/dock.prm

>  <Rbt.Receptor>
def.prm

>  <SCORE>
3.07884

>  <SCORE.INTER>
-4.801

>  <SCORE.INTER.CONST>
1

>  <SCORE.INTER.POLAR>
-0.505992

>  <SCORE.INTER.REPUL>
0

>  <SCORE.INTER.ROT>
18

>  <SCORE.INTER.VDW>
-26.4806

>  <SCORE.INTER.norm>
-0.09602

>  <SCORE.INTRA>
0.96292

>  <SCORE.INTRA.DIHEDRAL>
-0.54286

>  <SCORE.INTRA.DIHEDRAL.0>
28.8748

>  <SCORE.INTRA.POLAR>
-0.24033

>  <SCORE.INTRA.POLAR.0>
0

>  <SCORE.INTRA.REPUL>
0

>  <SCORE.INTRA.REPUL.0>
0

>  <SCORE.INTRA.VDW>
2.05147

>  <SCORE.INTRA.VDW.0>
-1.74536

>  <SCORE.INTRA.norm>
0.0192584

>  <SCORE.RESTR>
2.73298

>  <SCORE.RESTR.CAVITY>
2.73298

>  <SCORE.RESTR.norm>
0.0546596

>  <SCORE.SYSTEM>
4.18394

>  <SCORE.SYSTEM.CONST>
0

>  <SCORE.SYSTEM.DIHEDRAL>
7.72809

>  <SCORE.SYSTEM.POLAR>
-0.0170604

>  <SCORE.SYSTEM.VDW>
0.377902

>  <SCORE.SYSTEM.norm>
0.0836789

>  <SCORE.heavy>
50

>  <SCORE.norm>
0.0615769

>  <TITLE>
    Ritonavir_D                                                           

$$$$
Ritonavir.pdb
  RxDock  02242110033D
librxdock.so/0.1.0
 54 57  0  0  0  0  0  0  0  0999 V2000
  -49.4440   -8.3943   17.9199 S   0  0  0  0  0  0
  -50.6346    2.2596   11.6919 S   0  0  0  0  0  0
  -46.4594   -0.8041   16.9108 O   0  0  0  0  0  0
  -50.9534   -0.6551   17.0389 O   0  0  0  0  0  0
  -47.4212    0.9421   12.8261 O   0  0  0  0  0  0
  -49.0279   -0.6304   12.8741 O   0  0  0  0  0  0
  -52.3758   -4.5160   19.2705 O   0  0  0  0  0  0
  -50.0673   -1.9101   18.7184 N   0  0  0  0  0  0
  -47.4382   -0.5696   14.5205 N   0  0  0  0  0  0
  -52.8253   -3.0669   17.6082 N   0  0  0  0  0  0
  -53.1516   -5.3494   17.3214 N   0  0  0  0  0  0
  -50.8735   -6.5581   19.0272 N   0  0  0  0  0  0
  -49.6622    4.6350   11.8888 N   0  0  0  0  0  0
  -48.6910   -1.4684   18.4422 C   0  0  0  0  0  0
  -48.0009   -2.5753   17.6179 C   0  0  0  0  0  0
  -47.1227   -2.0057   16.4838 C   0  0  0  0  0  0
  -47.9990   -1.7180   15.2484 C   0  0  0  0  0  0
  -47.9064   -1.1825   19.7418 C   0  0  0  0  0  0
  -48.0517   -2.9504   14.3199 C   0  0  0  0  0  0
  -52.4360   -1.9233   18.4465 C   0  0  0  0  0  0
  -52.3994   -2.2981   19.9439 C   0  0  0  0  0  0
  -51.0816   -1.4259   17.9817 C   0  0  0  0  0  0
  -47.3989    0.2456   19.8838 C   0  0  0  0  0  0
  -49.0266   -4.0369   14.7499 C   0  0  0  0  0  0
  -51.7665   -1.1585   20.7591 C   0  0  0  0  0  0
  -53.8216   -2.5288   20.4837 C   0  0  0  0  0  0
  -46.7391    0.6355   21.0294 C   0  0  0  0  0  0
  -47.5956    1.1584   18.8710 C   0  0  0  0  0  0
  -48.0282   -0.1333   13.3890 C   0  0  0  0  0  0
  -48.8137   -4.7372   15.9170 C   0  0  0  0  0  0
  -50.1284   -4.3307   13.9747 C   0  0  0  0  0  0
  -52.7653   -4.3191   18.1137 C   0  0  0  0  0  0
  -46.2809    1.9257   21.1620 C   0  0  0  0  0  0
  -47.1368    2.4496   19.0007 C   0  0  0  0  0  0
  -49.6931   -5.7212   16.3070 C   0  0  0  0  0  0
  -51.0091   -5.3136   14.3631 C   0  0  0  0  0  0
  -46.4787    2.8344   20.1469 C   0  0  0  0  0  0
  -50.7916   -6.0092   15.5304 C   0  0  0  0  0  0
  -53.1105   -6.7203   17.8567 C   0  0  0  0  0  0
  -53.6130   -5.1513   15.9334 C   0  0  0  0  0  0
  -47.8901    1.3382   11.5254 C   0  0  0  0  0  0
  -51.6786   -7.1678   18.0740 C   0  0  0  0  0  0
  -48.8747    2.4817   11.6624 C   0  0  0  0  0  0
  -49.6771   -7.0737   19.0859 C   0  0  0  0  0  0
  -51.1175   -8.1468   17.3922 C   0  0  0  0  0  0
  -48.6072   -6.5878   20.0409 C   0  0  0  0  0  0
  -47.3832   -7.5153   20.0541 C   0  0  0  0  0  0
  -49.1468   -6.4735   21.4733 C   0  0  0  0  0  0
  -48.5863    3.7642   11.7747 C   0  0  0  0  0  0
  -50.8096    4.0185   11.8651 C   0  0  0  0  0  0
  -45.9491   -0.9516   17.7645 H   0  0  0  0  0  0
  -50.2145   -2.4856   19.3684 H   0  0  0  0  0  0
  -46.7192   -0.1672   14.8346 H   0  0  0  0  0  0
  -53.1147   -2.9245   16.7923 H   0  0  0  0  0  0
  1 44  1  0  0  0
  1 45  1  0  0  0
  2 43  1  0  0  0
  2 50  1  0  0  0
  3 16  1  0  0  0
  3 51  1  0  0  0
  4 22  2  0  0  0
  5 29  1  0  0  0
  5 41  1  0  0  0
  6 29  2  0  0  0
  7 32  2  0  0  0
  8 14  1  0  0  0
  8 22  1  0  0  0
  8 52  1  0  0  0
  9 17  1  0  0  0
  9 29  1  0  0  0
  9 53  1  0  0  0
 10 20  1  0  0  0
 10 32  1  0  0  0
 10 54  1  0  0  0
 11 32  1  0  0  0
 11 39  1  0  0  0
 11 40  1  0  0  0
 12 42  1  0  0  0
 12 44  2  0  0  0
 13 49  1  0  0  0
 13 50  2  0  0  0
 14 15  1  0  0  0
 14 18  1  0  0  0
 15 16  1  0  0  0
 16 17  1  0  0  0
 17 19  1  0  0  0
 18 23  1  0  0  0
 19 24  1  0  0  0
 20 21  1  0  0  0
 20 22  1  0  0  0
 21 25  1  0  0  0
 21 26  1  0  0  0
 23 27  2  0  0  0
 23 28  1  0  0  0
 24 30  2  0  0  0
 24 31  1  0  0  0
 27 33  1  0  0  0
 28 34  2  0  0  0
 30 35  1  0  0  0
 31 36  2  0  0  0
 33 37  2  0  0  0
 34 37  1  0  0  0
 35 38  2  0  0  0
 36 38  1  0  0  0
 39 42  1  0  0  0
 41 43  1  0  0  0
 42 45  2  0  0  0
 43 49  2  0  0  0
 44 46  1  0  0  0
 46 47  1  0  0  0
 46 48  1  0  0  0
M  END
>  <CHROM.0>
-179.29237231,-175.25899239,-34.82818692

>  <CHROM.1>
53.56528658,-8.36046973,98.10625416,-100.65796271,179.37948482,-16.86422929
-68.40201085,139.03954174,-119.84964412,37.40245401,26.59788944,-159.43491473
176.99125778,-65.78721054,170.54410190,83.42925111,66.02450440,-96.40214577
-9.67171842,-49.67227406,-2.32943686,16.82562270,2.05281544,1.11845467,2.15187573

>  <HEADER>
                                                                          

>  <MASTER>
        0    0    0    0    0    0    0    0   98    0   98    0          

>  <Name>
Ritonavir.pdb

>  <RI>
-1.00668e+09

>  <Rbt.Current_Directory>
/root/miniconda3/envs/rdock/share/rxdock-2013.1.1_148c5bd1-0/data/ligands/prepped_ligands/Ritonavir

>  <Rbt.Executable>
rbdock/0.1.0

>  <Rbt.Library>
librxdock.so/0.1.0

>  <Rbt.Parameter_File>
/root/miniconda3/envs/rdock/share/rxdock-2013.1.1_148c5bd1-0/data/scripts/dock.prm

>  <Rbt.Receptor>
def.prm

>  <SCORE>
8.5887

>  <SCORE.INTER>
-5.35729

>  <SCORE.INTER.CONST>
1

>  <SCORE.INTER.POLAR>
-0.818692

>  <SCORE.INTER.REPUL>
0.312653

>  <SCORE.INTER.ROT>
18

>  <SCORE.INTER.VDW>
-27.537

>  <SCORE.INTER.norm>
-0.107146

>  <SCORE.INTRA>
13.6525

>  <SCORE.INTRA.DIHEDRAL>
4.44674

>  <SCORE.INTRA.DIHEDRAL.0>
28.8748

>  <SCORE.INTRA.POLAR>
-0.135607

>  <SCORE.INTRA.POLAR.0>
0

>  <SCORE.INTRA.REPUL>
0

>  <SCORE.INTRA.REPUL.0>
0

>  <SCORE.INTRA.VDW>
11.8902

>  <SCORE.INTRA.VDW.0>
-1.74536

>  <SCORE.INTRA.norm>
0.273049

>  <SCORE.RESTR>
0.401604

>  <SCORE.RESTR.CAVITY>
0.401604

>  <SCORE.RESTR.norm>
0.00803208

>  <SCORE.SYSTEM>
-0.108082

>  <SCORE.SYSTEM.CONST>
0

>  <SCORE.SYSTEM.DIHEDRAL>
1.44589

>  <SCORE.SYSTEM.POLAR>
-0.0161958

>  <SCORE.SYSTEM.VDW>
-0.775959

>  <SCORE.SYSTEM.norm>
-0.00216164

>  <SCORE.heavy>
50

>  <SCORE.norm>
0.171774

>  <TITLE>
    Ritonavir_D                                                           

$$$$
Ritonavir.pdb
  RxDock  02242110033D
librxdock.so/0.1.0
 54 57  0  0  0  0  0  0  0  0999 V2000
  -45.8620   -0.4053   23.4280 S   0  0  0  0  0  0
  -56.0420   -5.1630   15.7859 S   0  0  0  0  0  0
  -48.5328   -6.5668   17.7516 O   0  0  0  0  0  0
  -47.1692   -3.3382   16.3704 O   0  0  0  0  0  0
  -52.3488   -5.2343   14.8028 O   0  0  0  0  0  0
  -52.8199   -4.7761   16.9533 O   0  0  0  0  0  0
  -48.2902    0.0786   18.4279 O   0  0  0  0  0  0
  -48.6720   -2.3045   17.7320 N   0  0  0  0  0  0
  -51.2709   -6.3817   16.4393 N   0  0  0  0  0  0
  -46.7376   -0.1668   16.8172 N   0  0  0  0  0  0
  -46.2864    1.0735   18.7295 N   0  0  0  0  0  0
  -45.1848   -0.1973   20.9502 N   0  0  0  0  0  0
  -56.1305   -7.3254   14.3918 N   0  0  0  0  0  0
  -48.8843   -3.5044   18.5567 C   0  0  0  0  0  0
  -49.7942   -4.4638   17.7614 C   0  0  0  0  0  0
  -49.7060   -5.9183   18.2703 C   0  0  0  0  0  0
  -50.9711   -6.6904   17.8457 C   0  0  0  0  0  0
  -49.5140   -3.1590   19.9244 C   0  0  0  0  0  0
  -50.7628   -8.2108   18.0143 C   0  0  0  0  0  0
  -47.6424   -1.0060   16.0177 C   0  0  0  0  0  0
  -47.1239   -1.1929   14.5754 C   0  0  0  0  0  0
  -47.7966   -2.3441   16.7131 C   0  0  0  0  0  0
  -50.9186   -2.5763   19.8551 C   0  0  0  0  0  0
  -50.6929   -8.6933   19.4560 C   0  0  0  0  0  0
  -48.2854   -1.0692   13.5756 C   0  0  0  0  0  0
  -46.0848   -0.1137   14.2248 C   0  0  0  0  0  0
  -51.9947   -3.3064   20.3120 C   0  0  0  0  0  0
  -51.1254   -1.3176   19.3351 C   0  0  0  0  0  0
  -52.1786   -5.4320   16.1346 C   0  0  0  0  0  0
  -49.5476   -9.2937   19.9314 C   0  0  0  0  0  0
  -51.7745   -8.5358   20.2964 C   0  0  0  0  0  0
  -47.1529    0.3208   18.0075 C   0  0  0  0  0  0
  -53.2655   -2.7839   20.2490 C   0  0  0  0  0  0
  -52.3960   -0.7919   19.2724 C   0  0  0  0  0  0
  -49.4828   -9.7320   21.2342 C   0  0  0  0  0  0
  -51.7114   -8.9729   21.5994 C   0  0  0  0  0  0
  -53.4675   -1.5250   19.7296 C   0  0  0  0  0  0
  -50.5645   -9.5711   22.0689 C   0  0  0  0  0  0
  -46.7116    1.6011   20.0365 C   0  0  0  0  0  0
  -44.9253    1.3895   18.2538 C   0  0  0  0  0  0
  -53.5632   -4.5776   14.3995 C   0  0  0  0  0  0
  -46.2087    0.7171   21.1605 C   0  0  0  0  0  0
  -54.7435   -5.5005   14.6250 C   0  0  0  0  0  0
  -44.8728   -0.8660   22.0254 C   0  0  0  0  0  0
  -46.6946    0.7607   22.3852 C   0  0  0  0  0  0
  -43.7901   -1.9239   22.0631 C   0  0  0  0  0  0
  -42.7042   -1.5996   23.0995 C   0  0  0  0  0  0
  -43.1207   -2.0873   20.6915 C   0  0  0  0  0  0
  -54.9761   -6.6491   14.0190 C   0  0  0  0  0  0
  -56.8093   -6.6909   15.3050 C   0  0  0  0  0  0
  -48.6710   -6.8683   16.8024 H   0  0  0  0  0  0
  -49.1183   -1.5681   17.9168 H   0  0  0  0  0  0
  -50.8473   -6.8178   15.8006 H   0  0  0  0  0  0
  -45.9262   -0.0074   16.5242 H   0  0  0  0  0  0
  1 44  1  0  0  0
  1 45  1  0  0  0
  2 43  1  0  0  0
  2 50  1  0  0  0
  3 16  1  0  0  0
  3 51  1  0  0  0
  4 22  2  0  0  0
  5 29  1  0  0  0
  5 41  1  0  0  0
  6 29  2  0  0  0
  7 32  2  0  0  0
  8 14  1  0  0  0
  8 22  1  0  0  0
  8 52  1  0  0  0
  9 17  1  0  0  0
  9 29  1  0  0  0
  9 53  1  0  0  0
 10 20  1  0  0  0
 10 32  1  0  0  0
 10 54  1  0  0  0
 11 32  1  0  0  0
 11 39  1  0  0  0
 11 40  1  0  0  0
 12 42  1  0  0  0
 12 44  2  0  0  0
 13 49  1  0  0  0
 13 50  2  0  0  0
 14 15  1  0  0  0
 14 18  1  0  0  0
 15 16  1  0  0  0
 16 17  1  0  0  0
 17 19  1  0  0  0
 18 23  1  0  0  0
 19 24  1  0  0  0
 20 21  1  0  0  0
 20 22  1  0  0  0
 21 25  1  0  0  0
 21 26  1  0  0  0
 23 27  2  0  0  0
 23 28  1  0  0  0
 24 30  2  0  0  0
 24 31  1  0  0  0
 27 33  1  0  0  0
 28 34  2  0  0  0
 30 35  1  0  0  0
 31 36  2  0  0  0
 33 37  2  0  0  0
 34 37  1  0  0  0
 35 38  2  0  0  0
 36 38  1  0  0  0
 39 42  1  0  0  0
 41 43  1  0  0  0
 42 45  2  0  0  0
 43 49  2  0  0  0
 44 46  1  0  0  0
 46 47  1  0  0  0
 46 48  1  0  0  0
M  END
>  <CHROM.0>
-65.00047127,170.87585486,97.64040181

>  <CHROM.1>
-79.09711965,-19.34610695,-69.96457159,-77.79527144,-96.93450859,166.93011007
97.80241753,160.32364652,64.55078600,-80.03342465,-77.23385213,-169.53516899
111.04134304,-117.90954184,-137.70118517,-99.36357690,17.07414872,115.25870782
-58.31640589,-49.56007789,-3.45187396,18.39860789,-0.19039195,0.70845405
2.40167007

>  <HEADER>
                                                                          

>  <MASTER>
        0    0    0    0    0    0    0    0   98    0   98    0          

>  <Name>
Ritonavir.pdb

>  <RI>
-1.00668e+09

>  <Rbt.Current_Directory>
/root/miniconda3/envs/rdock/share/rxdock-2013.1.1_148c5bd1-0/data/ligands/prepped_ligands/Ritonavir

>  <Rbt.Executable>
rbdock/0.1.0

>  <Rbt.Library>
librxdock.so/0.1.0

>  <Rbt.Parameter_File>
/root/miniconda3/envs/rdock/share/rxdock-2013.1.1_148c5bd1-0/data/scripts/dock.prm

>  <Rbt.Receptor>
def.prm

>  <SCORE>
0.349848

>  <SCORE.INTER>
-2.5329

>  <SCORE.INTER.CONST>
1

>  <SCORE.INTER.POLAR>
-0.32153

>  <SCORE.INTER.REPUL>
0.00094247

>  <SCORE.INTER.ROT>
18

>  <SCORE.INTER.VDW>
-24.8444

>  <SCORE.INTER.norm>
-0.050658

>  <SCORE.INTRA>
-2.05348

>  <SCORE.INTRA.DIHEDRAL>
-3.1341

>  <SCORE.INTRA.DIHEDRAL.0>
28.8748

>  <SCORE.INTRA.POLAR>
-0.406488

>  <SCORE.INTRA.POLAR.0>
0

>  <SCORE.INTRA.REPUL>
0

>  <SCORE.INTRA.REPUL.0>
0

>  <SCORE.INTRA.VDW>
0.895633

>  <SCORE.INTRA.VDW.0>
-1.74536

>  <SCORE.INTRA.norm>
-0.0410695

>  <SCORE.RESTR>
3.992

>  <SCORE.RESTR.CAVITY>
3.992

>  <SCORE.RESTR.norm>
0.07984

>  <SCORE.SYSTEM>
0.944227

>  <SCORE.SYSTEM.CONST>
0

>  <SCORE.SYSTEM.DIHEDRAL>
2.9548

>  <SCORE.SYSTEM.POLAR>
-0.00460549

>  <SCORE.SYSTEM.VDW>
-0.517514

>  <SCORE.SYSTEM.norm>
0.0188845

>  <SCORE.heavy>
50

>  <SCORE.norm>
0.00699695

>  <TITLE>
    Ritonavir_D                                                           

$$$$
Ritonavir.pdb
  RxDock  02242110043D
librxdock.so/0.1.0
 54 57  0  0  0  0  0  0  0  0999 V2000
  -47.0767   -0.3086   16.1446 S   0  0  0  0  0  0
  -45.6152    1.4412   21.4054 S   0  0  0  0  0  0
  -47.7451   -3.8872   17.3344 O   0  0  0  0  0  0
  -50.6540   -6.7771   16.3881 O   0  0  0  0  0  0
  -47.2955   -1.0890   20.7023 O   0  0  0  0  0  0
  -49.3146   -2.0016   21.0855 O   0  0  0  0  0  0
  -51.2372   -2.5710   15.0242 O   0  0  0  0  0  0
  -51.4920   -5.1324   17.7199 N   0  0  0  0  0  0
  -48.4478   -1.9924   18.9665 N   0  0  0  0  0  0
  -51.1418   -4.7239   14.3753 N   0  0  0  0  0  0
  -49.8661   -3.0997   13.3106 N   0  0  0  0  0  0
  -47.1809   -2.0754   14.2714 N   0  0  0  0  0  0
  -43.1848    1.0605   20.6469 N   0  0  0  0  0  0
  -50.7595   -5.5986   18.9079 C   0  0  0  0  0  0
  -49.2875   -5.1635   18.7506 C   0  0  0  0  0  0
  -49.1184   -4.0084   17.7409 C   0  0  0  0  0  0
  -49.6013   -2.6909   18.3796 C   0  0  0  0  0  0
  -50.8630   -7.1299   19.0838 C   0  0  0  0  0  0
  -50.2763   -1.7896   17.3235 C   0  0  0  0  0  0
  -52.1026   -5.1211   15.4151 C   0  0  0  0  0  0
  -53.1848   -6.0724   14.8602 C   0  0  0  0  0  0
  -51.3395   -5.7754   16.5497 C   0  0  0  0  0  0
  -50.7532   -7.6193   20.5211 C   0  0  0  0  0  0
  -50.5719   -0.3700   17.7854 C   0  0  0  0  0  0
  -53.7243   -6.9725   15.9839 C   0  0  0  0  0  0
  -54.3694   -5.2760   14.2861 C   0  0  0  0  0  0
  -51.8837   -8.0020   21.2107 C   0  0  0  0  0  0
  -49.5260   -7.6823   21.1435 C   0  0  0  0  0  0
  -48.4225   -1.7211   20.2873 C   0  0  0  0  0  0
  -49.5488    0.5430   17.9183 C   0  0  0  0  0  0
  -51.8640    0.0129   18.0767 C   0  0  0  0  0  0
  -50.7700   -3.4289   14.2662 C   0  0  0  0  0  0
  -51.7885   -8.4428   22.5102 C   0  0  0  0  0  0
  -49.4280   -8.1244   22.4433 C   0  0  0  0  0  0
  -49.8135    1.8268   18.3374 C   0  0  0  0  0  0
  -52.1308    1.2960   18.4953 C   0  0  0  0  0  0
  -50.5598   -8.5052   23.1279 C   0  0  0  0  0  0
  -51.1049    2.2038   18.6254 C   0  0  0  0  0  0
  -49.4341   -1.6979   13.1846 C   0  0  0  0  0  0
  -49.2953   -4.0964   12.3836 C   0  0  0  0  0  0
  -46.3154   -0.7915   19.6925 C   0  0  0  0  0  0
  -48.3752   -1.3686   14.2180 C   0  0  0  0  0  0
  -45.2582    0.1327   20.2616 C   0  0  0  0  0  0
  -46.3836   -1.6542   15.2134 C   0  0  0  0  0  0
  -48.5121   -0.4078   15.1103 C   0  0  0  0  0  0
  -45.0211   -2.2575   15.4824 C   0  0  0  0  0  0
  -44.3623   -1.6569   16.7328 C   0  0  0  0  0  0
  -44.0757   -2.0566   14.2899 C   0  0  0  0  0  0
  -43.9646    0.1081   20.0036 C   0  0  0  0  0  0
  -43.8847    1.8408   21.4204 C   0  0  0  0  0  0
  -47.4434   -4.6961   16.8190 H   0  0  0  0  0  0
  -52.0216   -4.4319   17.7856 H   0  0  0  0  0  0
  -47.7730   -1.7602   18.4486 H   0  0  0  0  0  0
  -50.8005   -5.3358   13.8473 H   0  0  0  0  0  0
  1 44  1  0  0  0
  1 45  1  0  0  0
  2 43  1  0  0  0
  2 50  1  0  0  0
  3 16  1  0  0  0
  3 51  1  0  0  0
  4 22  2  0  0  0
  5 29  1  0  0  0
  5 41  1  0  0  0
  6 29  2  0  0  0
  7 32  2  0  0  0
  8 14  1  0  0  0
  8 22  1  0  0  0
  8 52  1  0  0  0
  9 17  1  0  0  0
  9 29  1  0  0  0
  9 53  1  0  0  0
 10 20  1  0  0  0
 10 32  1  0  0  0
 10 54  1  0  0  0
 11 32  1  0  0  0
 11 39  1  0  0  0
 11 40  1  0  0  0
 12 42  1  0  0  0
 12 44  2  0  0  0
 13 49  1  0  0  0
 13 50  2  0  0  0
 14 15  1  0  0  0
 14 18  1  0  0  0
 15 16  1  0  0  0
 16 17  1  0  0  0
 17 19  1  0  0  0
 18 23  1  0  0  0
 19 24  1  0  0  0
 20 21  1  0  0  0
 20 22  1  0  0  0
 21 25  1  0  0  0
 21 26  1  0  0  0
 23 27  2  0  0  0
 23 28  1  0  0  0
 24 30  2  0  0  0
 24 31  1  0  0  0
 27 33  1  0  0  0
 28 34  2  0  0  0
 30 35  1  0  0  0
 31 36  2  0  0  0
 33 37  2  0  0  0
 34 37  1  0  0  0
 35 38  2  0  0  0
 36 38  1  0  0  0
 39 42  1  0  0  0
 41 43  1  0  0  0
 42 45  2  0  0  0
 43 49  2  0  0  0
 44 46  1  0  0  0
 46 47  1  0  0  0
 46 48  1  0  0  0
M  END
>  <CHROM.0>
-63.56531076,-69.36462537,60.66024056

>  <CHROM.1>
65.43890453,-179.40211943,169.33913422,75.14945808,-119.95950321,135.00251508
80.54176100,20.16027116,-151.98866314,-163.54899798,-27.31663976,-49.44200898
102.92721107,73.99243668,152.96148170,-59.35603671,58.54590974,-37.40517168
5.18339134,-49.01138844,-2.81569568,17.75497534,0.16897548,-0.86711251,-1.16445299

>  <HEADER>
                                                                          

>  <MASTER>
        0    0    0    0    0    0    0    0   98    0   98    0          

>  <Name>
Ritonavir.pdb

>  <RI>
-1.00668e+09

>  <Rbt.Current_Directory>
/root/miniconda3/envs/rdock/share/rxdock-2013.1.1_148c5bd1-0/data/ligands/prepped_ligands/Ritonavir

>  <Rbt.Executable>
rbdock/0.1.0

>  <Rbt.Library>
librxdock.so/0.1.0

>  <Rbt.Parameter_File>
/root/miniconda3/envs/rdock/share/rxdock-2013.1.1_148c5bd1-0/data/scripts/dock.prm

>  <Rbt.Receptor>
def.prm

>  <SCORE>
3.42153

>  <SCORE.INTER>
0.761653

>  <SCORE.INTER.CONST>
1

>  <SCORE.INTER.POLAR>
0

>  <SCORE.INTER.REPUL>
0.778259

>  <SCORE.INTER.ROT>
18

>  <SCORE.INTER.VDW>
-26.5296

>  <SCORE.INTER.norm>
0.0152331

>  <SCORE.INTRA>
-0.69782

>  <SCORE.INTRA.DIHEDRAL>
-4.23319

>  <SCORE.INTRA.DIHEDRAL.0>
28.8748

>  <SCORE.INTRA.POLAR>
0

>  <SCORE.INTRA.POLAR.0>
0

>  <SCORE.INTRA.REPUL>
0

>  <SCORE.INTRA.REPUL.0>
0

>  <SCORE.INTRA.VDW>
1.41878

>  <SCORE.INTRA.VDW.0>
-1.74536

>  <SCORE.INTRA.norm>
-0.0139564

>  <SCORE.RESTR>
4.26774

>  <SCORE.RESTR.CAVITY>
4.26774

>  <SCORE.RESTR.norm>
0.0853548

>  <SCORE.SYSTEM>
-0.910039

>  <SCORE.SYSTEM.CONST>
0

>  <SCORE.SYSTEM.DIHEDRAL>
0.458792

>  <SCORE.SYSTEM.POLAR>
-0.00262975

>  <SCORE.SYSTEM.VDW>
-1.13049

>  <SCORE.SYSTEM.norm>
-0.0182008

>  <SCORE.heavy>
50

>  <SCORE.norm>
0.0684307

>  <TITLE>
    Ritonavir_D                                                           

$$$$
Ritonavir.pdb
  RxDock  02242110043D
librxdock.so/0.1.0
 54 57  0  0  0  0  0  0  0  0999 V2000
  -50.0098   -9.1505   19.8613 S   0  0  0  0  0  0
  -42.5968   -0.3220   19.6089 S   0  0  0  0  0  0
  -48.1665    1.3186   20.8636 O   0  0  0  0  0  0
  -51.3285   -1.1836   16.1022 O   0  0  0  0  0  0
  -44.0256    2.4276   20.0460 O   0  0  0  0  0  0
  -44.7117    2.0601   17.9363 O   0  0  0  0  0  0
  -47.6588   -3.7617   16.9684 O   0  0  0  0  0  0
  -49.5013   -0.2424   17.0800 N   0  0  0  0  0  0
  -45.9397    1.2575   19.6940 N   0  0  0  0  0  0
  -49.5258   -3.4041   15.7637 N   0  0  0  0  0  0
  -49.1104   -5.4743   16.7333 N   0  0  0  0  0  0
  -50.2501   -6.7107   19.0669 N   0  0  0  0  0  0
  -43.7088   -2.0635   21.1445 N   0  0  0  0  0  0
  -50.3053    0.6553   17.9244 C   0  0  0  0  0  0
  -49.3298    1.5502   18.7172 C   0  0  0  0  0  0
  -48.3316    0.7307   19.5624 C   0  0  0  0  0  0
  -46.9743    0.6627   18.8344 C   0  0  0  0  0  0
  -51.2304   -0.1292   18.8809 C   0  0  0  0  0  0
  -46.6049   -0.8003   18.5076 C   0  0  0  0  0  0
  -49.1452   -2.0057   15.5152 C   0  0  0  0  0  0
  -49.1289   -1.6771   14.0066 C   0  0  0  0  0  0
  -50.1159   -1.1051   16.2530 C   0  0  0  0  0  0
  -50.6606   -1.4470   19.3871 C   0  0  0  0  0  0
  -45.7616   -0.9849   17.2544 C   0  0  0  0  0  0
  -48.4876   -0.2995   13.7722 C   0  0  0  0  0  0
  -48.3037   -2.7180   13.2301 C   0  0  0  0  0  0
  -50.0138   -1.5004   20.6031 C   0  0  0  0  0  0
  -50.7854   -2.5943   18.6350 C   0  0  0  0  0  0
  -44.8982    1.9133   19.1427 C   0  0  0  0  0  0
  -46.0096   -0.2234   16.1334 C   0  0  0  0  0  0
  -44.7451   -1.9162   17.2296 C   0  0  0  0  0  0
  -48.7196   -4.1961   16.5052 C   0  0  0  0  0  0
  -49.4959   -2.6889   21.0627 C   0  0  0  0  0  0
  -50.2693   -3.7852   19.0934 C   0  0  0  0  0  0
  -45.2493   -0.3897   14.9985 C   0  0  0  0  0  0
  -43.9836   -2.0836   16.0962 C   0  0  0  0  0  0
  -49.6239   -3.8333   20.3083 C   0  0  0  0  0  0
  -44.2355   -1.3195   14.9798 C   0  0  0  0  0  0
  -48.2560   -6.3501   17.5522 C   0  0  0  0  0  0
  -50.3654   -6.0280   16.1884 C   0  0  0  0  0  0
  -43.8585    1.6919   21.2706 C   0  0  0  0  0  0
  -49.0977   -7.2100   18.4740 C   0  0  0  0  0  0
  -43.6057    0.2307   20.9595 C   0  0  0  0  0  0
  -50.8542   -7.5873   19.8199 C   0  0  0  0  0  0
  -48.8017   -8.4618   18.7628 C   0  0  0  0  0  0
  -52.1309   -7.2936   20.5793 C   0  0  0  0  0  0
  -52.0992   -5.9102   21.2454 C   0  0  0  0  0  0
  -52.3924   -8.3495   21.6622 C   0  0  0  0  0  0
  -44.0784   -0.8109   21.6170 C   0  0  0  0  0  0
  -42.9335   -1.9954   20.0997 C   0  0  0  0  0  0
  -47.8707    2.2773   20.7970 H   0  0  0  0  0  0
  -48.6226   -0.2092   17.1277 H   0  0  0  0  0  0
  -46.0114    1.1868   20.5700 H   0  0  0  0  0  0
  -50.2855   -3.7069   15.4462 H   0  0  0  0  0  0
  1 44  1  0  0  0
  1 45  1  0  0  0
  2 43  1  0  0  0
  2 50  1  0  0  0
  3 16  1  0  0  0
  3 51  1  0  0  0
  4 22  2  0  0  0
  5 29  1  0  0  0
  5 41  1  0  0  0
  6 29  2  0  0  0
  7 32  2  0  0  0
  8 14  1  0  0  0
  8 22  1  0  0  0
  8 52  1  0  0  0
  9 17  1  0  0  0
  9 29  1  0  0  0
  9 53  1  0  0  0
 10 20  1  0  0  0
 10 32  1  0  0  0
 10 54  1  0  0  0
 11 32  1  0  0  0
 11 39  1  0  0  0
 11 40  1  0  0  0
 12 42  1  0  0  0
 12 44  2  0  0  0
 13 49  1  0  0  0
 13 50  2  0  0  0
 14 15  1  0  0  0
 14 18  1  0  0  0
 15 16  1  0  0  0
 16 17  1  0  0  0
 17 19  1  0  0  0
 18 23  1  0  0  0
 19 24  1  0  0  0
 20 21  1  0  0  0
 20 22  1  0  0  0
 21 25  1  0  0  0
 21 26  1  0  0  0
 23 27  2  0  0  0
 23 28  1  0  0  0
 24 30  2  0  0  0
 24 31  1  0  0  0
 27 33  1  0  0  0
 28 34  2  0  0  0
 30 35  1  0  0  0
 31 36  2  0  0  0
 33 37  2  0  0  0
 34 37  1  0  0  0
 35 38  2  0  0  0
 36 38  1  0  0  0
 39 42  1  0  0  0
 41 43  1  0  0  0
 42 45  2  0  0  0
 43 49  2  0  0  0
 44 46  1  0  0  0
 46 47  1  0  0  0
 46 48  1  0  0  0
M  END
>  <CHROM.0>
-56.79748740,-61.01866045,174.00922886

>  <CHROM.1>
-56.54131828,-147.75522737,49.55014571,-178.05372321,-147.27159807,125.69898207
139.90552480,-57.04838588,33.85803623,-137.75548318,-1.48936372,-89.84387793
95.35333453,-39.22642704,-169.80715232,-54.36447655,-36.91229262,39.11309522
137.08498624,-47.87985676,-2.36209156,18.37910752,-2.55990592,-0.73979760
-0.83388548

>  <HEADER>
                                                                          

>  <MASTER>
        0    0    0    0    0    0    0    0   98    0   98    0          

>  <Name>
Ritonavir.pdb

>  <RI>
-1.00668e+09

>  <Rbt.Current_Directory>
/root/miniconda3/envs/rdock/share/rxdock-2013.1.1_148c5bd1-0/data/ligands/prepped_ligands/Ritonavir

>  <Rbt.Executable>
rbdock/0.1.0

>  <Rbt.Library>
librxdock.so/0.1.0

>  <Rbt.Parameter_File>
/root/miniconda3/envs/rdock/share/rxdock-2013.1.1_148c5bd1-0/data/scripts/dock.prm

>  <Rbt.Receptor>
def.prm

>  <SCORE>
-10.5579

>  <SCORE.INTER>
-5.06318

>  <SCORE.INTER.CONST>
1

>  <SCORE.INTER.POLAR>
0

>  <SCORE.INTER.REPUL>
0

>  <SCORE.INTER.ROT>
18

>  <SCORE.INTER.VDW>
-28.4632

>  <SCORE.INTER.norm>
-0.101264

>  <SCORE.INTRA>
-4.50618

>  <SCORE.INTRA.DIHEDRAL>
4.9418

>  <SCORE.INTRA.DIHEDRAL.0>
28.8748

>  <SCORE.INTRA.POLAR>
0

>  <SCORE.INTRA.POLAR.0>
0

>  <SCORE.INTRA.REPUL>
0

>  <SCORE.INTRA.REPUL.0>
0

>  <SCORE.INTRA.VDW>
-6.97708

>  <SCORE.INTRA.VDW.0>
-1.74536

>  <SCORE.INTRA.norm>
-0.0901236

>  <SCORE.RESTR>
0.0519039

>  <SCORE.RESTR.CAVITY>
0.0519039

>  <SCORE.RESTR.norm>
0.00103808

>  <SCORE.SYSTEM>
-1.04046

>  <SCORE.SYSTEM.CONST>
0

>  <SCORE.SYSTEM.DIHEDRAL>
0.12084

>  <SCORE.SYSTEM.VDW>
-1.10088

>  <SCORE.SYSTEM.norm>
-0.0208092

>  <SCORE.heavy>
50

>  <SCORE.norm>
-0.211158

>  <TITLE>
    Ritonavir_D                                                           

$$$$
Ritonavir.pdb
  RxDock  02242110043D
librxdock.so/0.1.0
 54 57  0  0  0  0  0  0  0  0999 V2000
  -42.1868    0.5003   22.0042 S   0  0  0  0  0  0
  -50.6733   -8.4796   17.5923 S   0  0  0  0  0  0
  -49.5652   -4.4549   14.1231 O   0  0  0  0  0  0
  -47.0953    0.3191   14.2374 O   0  0  0  0  0  0
  -47.6474   -7.1042   17.7053 O   0  0  0  0  0  0
  -48.9372   -5.6696   18.8607 O   0  0  0  0  0  0
  -44.5200    1.1141   17.9766 O   0  0  0  0  0  0
  -48.3572   -0.9023   15.6853 N   0  0  0  0  0  0
  -48.6218   -5.3679   16.6132 N   0  0  0  0  0  0
  -46.5906    0.3356   17.5624 N   0  0  0  0  0  0
  -46.1678    1.6731   19.4147 N   0  0  0  0  0  0
  -44.7361    0.4168   21.6361 N   0  0  0  0  0  0
  -51.4374   -8.1240   20.0247 N   0  0  0  0  0  0
  -49.5008   -0.9796   14.7627 C   0  0  0  0  0  0
  -50.2523   -2.2945   15.0581 C   0  0  0  0  0  0
  -49.3016   -3.5053   15.1694 C   0  0  0  0  0  0
  -49.4760   -4.1724   16.5483 C   0  0  0  0  0  0
  -49.0534   -0.9237   13.2852 C   0  0  0  0  0  0
  -49.0921   -3.1935   17.6787 C   0  0  0  0  0  0
  -46.1339   -0.3434   16.3408 C   0  0  0  0  0  0
  -45.7433   -1.8119   16.6148 C   0  0  0  0  0  0
  -47.2379   -0.2631   15.3051 C   0  0  0  0  0  0
  -49.1335    0.4538   12.6423 C   0  0  0  0  0  0
  -50.1670   -2.1794   18.0424 C   0  0  0  0  0  0
  -45.3167   -2.4986   15.3069 C   0  0  0  0  0  0
  -44.5589   -1.8881   17.5938 C   0  0  0  0  0  0
  -50.2217    1.2661   12.8785 C   0  0  0  0  0  0
  -48.1218    0.8984   11.8199 C   0  0  0  0  0  0
  -48.4437   -6.0081   17.7867 C   0  0  0  0  0  0
  -51.4971   -2.5370   18.0097 C   0  0  0  0  0  0
  -49.8192   -0.8954   18.4049 C   0  0  0  0  0  0
  -45.7096    1.0414   18.3058 C   0  0  0  0  0  0
  -50.2985    2.5106   12.2975 C   0  0  0  0  0  0
  -48.1955    2.1439   11.2386 C   0  0  0  0  0  0
  -52.4708   -1.6212   18.3367 C   0  0  0  0  0  0
  -50.7911    0.0215   18.7326 C   0  0  0  0  0  0
  -49.2845    2.9513   11.4772 C   0  0  0  0  0  0
  -52.1180   -0.3418   18.6990 C   0  0  0  0  0  0
  -45.2292    2.4615   20.2303 C   0  0  0  0  0  0
  -47.5788    1.6001   19.8416 C   0  0  0  0  0  0
  -47.9638   -8.1964   18.5860 C   0  0  0  0  0  0
  -44.2769    1.5519   20.9809 C   0  0  0  0  0  0
  -49.4546   -8.2215   18.8555 C   0  0  0  0  0  0
  -43.7819   -0.2528   22.2205 C   0  0  0  0  0  0
  -42.9788    1.7698   21.0548 C   0  0  0  0  0  0
  -44.0179   -1.5275   23.0030 C   0  0  0  0  0  0
  -43.1886   -2.6995   22.4578 C   0  0  0  0  0  0
  -45.4993   -1.9288   22.9837 C   0  0  0  0  0  0
  -50.0500   -8.0606   20.0218 C   0  0  0  0  0  0
  -51.9310   -8.3387   18.8383 C   0  0  0  0  0  0
  -49.6245   -4.0041   13.2263 H   0  0  0  0  0  0
  -48.4151   -1.2804   16.4786 H   0  0  0  0  0  0
  -48.2349   -5.6639   15.8782 H   0  0  0  0  0  0
  -47.4377    0.2948   17.7872 H   0  0  0  0  0  0
  1 44  1  0  0  0
  1 45  1  0  0  0
  2 43  1  0  0  0
  2 50  1  0  0  0
  3 16  1  0  0  0
  3 51  1  0  0  0
  4 22  2  0  0  0
  5 29  1  0  0  0
  5 41  1  0  0  0
  6 29  2  0  0  0
  7 32  2  0  0  0
  8 14  1  0  0  0
  8 22  1  0  0  0
  8 52  1  0  0  0
  9 17  1  0  0  0
  9 29  1  0  0  0
  9 53  1  0  0  0
 10 20  1  0  0  0
 10 32  1  0  0  0
 10 54  1  0  0  0
 11 32  1  0  0  0
 11 39  1  0  0  0
 11 40  1  0  0  0
 12 42  1  0  0  0
 12 44  2  0  0  0
 13 49  1  0  0  0
 13 50  2  0  0  0
 14 15  1  0  0  0
 14 18  1  0  0  0
 15 16  1  0  0  0
 16 17  1  0  0  0
 17 19  1  0  0  0
 18 23  1  0  0  0
 19 24  1  0  0  0
 20 21  1  0  0  0
 20 22  1  0  0  0
 21 25  1  0  0  0
 21 26  1  0  0  0
 23 27  2  0  0  0
 23 28  1  0  0  0
 24 30  2  0  0  0
 24 31  1  0  0  0
 27 33  1  0  0  0
 28 34  2  0  0  0
 30 35  1  0  0  0
 31 36  2  0  0  0
 33 37  2  0  0  0
 34 37  1  0  0  0
 35 38  2  0  0  0
 36 38  1  0  0  0
 39 42  1  0  0  0
 41 43  1  0  0  0
 42 45  2  0  0  0
 43 49  2  0  0  0
 44 46  1  0  0  0
 46 47  1  0  0  0
 46 48  1  0  0  0
M  END
>  <CHROM.0>
57.65892922,64.46656568,58.09549895

>  <CHROM.1>
48.22317404,33.35551562,30.42456458,149.71827339,169.92036197,93.59816300
-71.51413545,-47.16439602,-96.90406040,-115.93117612,54.89620934,-159.37979080
-41.96098251,35.93898507,178.13196776,117.62178947,-44.67440391,62.63790003
-57.38320034,-47.77828449,-1.98260178,17.61883646,-0.43633104,0.84205279
2.47099018

>  <HEADER>
                                                                          

>  <MASTER>
        0    0    0    0    0    0    0    0   98    0   98    0          

>  <Name>
Ritonavir.pdb

>  <RI>
-1.00668e+09

>  <Rbt.Current_Directory>
/root/miniconda3/envs/rdock/share/rxdock-2013.1.1_148c5bd1-0/data/ligands/prepped_ligands/Ritonavir

>  <Rbt.Executable>
rbdock/0.1.0

>  <Rbt.Library>
librxdock.so/0.1.0

>  <Rbt.Parameter_File>
/root/miniconda3/envs/rdock/share/rxdock-2013.1.1_148c5bd1-0/data/scripts/dock.prm

>  <Rbt.Receptor>
def.prm

>  <SCORE>
-2.86961

>  <SCORE.INTER>
-9.71094

>  <SCORE.INTER.CONST>
1

>  <SCORE.INTER.POLAR>
-0.023773

>  <SCORE.INTER.REPUL>
0

>  <SCORE.INTER.ROT>
18

>  <SCORE.INTER.VDW>
-33.0301

>  <SCORE.INTER.norm>
-0.194219

>  <SCORE.INTRA>
5.94059

>  <SCORE.INTRA.DIHEDRAL>
2.85043

>  <SCORE.INTRA.DIHEDRAL.0>
28.8748

>  <SCORE.INTRA.POLAR>
0

>  <SCORE.INTRA.POLAR.0>
0

>  <SCORE.INTRA.REPUL>
0

>  <SCORE.INTRA.REPUL.0>
0

>  <SCORE.INTRA.VDW>
4.51537

>  <SCORE.INTRA.VDW.0>
-1.74536

>  <SCORE.INTRA.norm>
0.118812

>  <SCORE.RESTR>
1.89331

>  <SCORE.RESTR.CAVITY>
1.89331

>  <SCORE.RESTR.norm>
0.0378661

>  <SCORE.SYSTEM>
-0.992563

>  <SCORE.SYSTEM.CONST>
0

>  <SCORE.SYSTEM.DIHEDRAL>
0.123927

>  <SCORE.SYSTEM.VDW>
-1.05453

>  <SCORE.SYSTEM.norm>
-0.0198513

>  <SCORE.heavy>
50

>  <SCORE.norm>
-0.0573922

>  <TITLE>
    Ritonavir_D                                                           

$$$$
Ritonavir.pdb
  RxDock  02242110043D
librxdock.so/0.1.0
 54 57  0  0  0  0  0  0  0  0999 V2000
  -42.1341    2.5795   18.0449 S   0  0  0  0  0  0
  -50.0566   -8.6275   19.4795 S   0  0  0  0  0  0
  -50.5453   -5.8125   19.1754 O   0  0  0  0  0  0
  -48.4487   -0.0095   19.5601 O   0  0  0  0  0  0
  -52.6334   -7.5105   16.7774 O   0  0  0  0  0  0
  -50.8616   -6.1647   16.4519 O   0  0  0  0  0  0
  -46.0895   -1.6176   19.8528 O   0  0  0  0  0  0
  -48.8278   -2.2453   19.7556 N   0  0  0  0  0  0
  -52.6022   -5.4657   17.7646 N   0  0  0  0  0  0
  -46.6529   -0.5838   21.7708 N   0  0  0  0  0  0
  -44.4995   -0.4169   20.9140 N   0  0  0  0  0  0
  -41.7282    1.0395   20.0710 N   0  0  0  0  0  0
  -48.5875   -8.8514   17.3774 N   0  0  0  0  0  0
  -49.2009   -2.3960   18.3402 C   0  0  0  0  0  0
  -49.4773   -3.8926   18.0860 C   0  0  0  0  0  0
  -50.6913   -4.4124   18.8849 C   0  0  0  0  0  0
  -51.9819   -4.1693   18.0774 C   0  0  0  0  0  0
  -48.0962   -1.8740   17.3950 C   0  0  0  0  0  0
  -52.9704   -3.2972   18.8811 C   0  0  0  0  0  0
  -48.0352   -1.0760   21.6764 C   0  0  0  0  0  0
  -48.9990   -0.2453   22.5512 C   0  0  0  0  0  0
  -48.4599   -1.0397   20.2218 C   0  0  0  0  0  0
  -48.5826   -1.4329   16.0216 C   0  0  0  0  0  0
  -52.5784   -1.8321   19.0065 C   0  0  0  0  0  0
  -49.1803    1.1588   21.9516 C   0  0  0  0  0  0
  -50.3849   -0.9101   22.6191 C   0  0  0  0  0  0
  -47.7724   -1.5872   14.9173 C   0  0  0  0  0  0
  -49.8336   -0.8759   15.8718 C   0  0  0  0  0  0
  -51.9600   -6.3485   16.9729 C   0  0  0  0  0  0
  -52.4444   -1.2542   20.2500 C   0  0  0  0  0  0
  -52.3566   -1.0713   17.8782 C   0  0  0  0  0  0
  -45.7602   -0.9048   20.8079 C   0  0  0  0  0  0
  -48.2079   -1.1877   13.6752 C   0  0  0  0  0  0
  -50.2722   -0.4768   14.6297 C   0  0  0  0  0  0
  -52.0915    0.0709   20.3657 C   0  0  0  0  0  0
  -52.0033    0.2535   17.9918 C   0  0  0  0  0  0
  -49.4592   -0.6326   13.5299 C   0  0  0  0  0  0
  -51.8701    0.8250   19.2365 C   0  0  0  0  0  0
  -43.5152   -0.7399   19.8680 C   0  0  0  0  0  0
  -44.0704    0.4291   22.0448 C   0  0  0  0  0  0
  -52.3271   -8.5910   17.6760 C   0  0  0  0  0  0
  -42.8157    0.5150   19.3846 C   0  0  0  0  0  0
  -50.8284   -8.6757   17.8828 C   0  0  0  0  0  0
  -41.2449    2.1136   19.5113 C   0  0  0  0  0  0
  -43.1811    1.1732   18.3023 C   0  0  0  0  0  0
  -40.0601    2.8784   20.0627 C   0  0  0  0  0  0
  -38.9342    1.9413   20.5241 C   0  0  0  0  0  0
  -40.4698    3.7665   21.2457 C   0  0  0  0  0  0
  -49.9064   -8.7918   16.9463 C   0  0  0  0  0  0
  -48.4812   -8.7805   18.6739 C   0  0  0  0  0  0
  -49.9086   -5.9633   19.9388 H   0  0  0  0  0  0
  -48.8447   -2.9491   20.2846 H   0  0  0  0  0  0
  -53.3920   -5.6610   18.1046 H   0  0  0  0  0  0
  -46.4244   -0.0665   22.4416 H   0  0  0  0  0  0
  1 44  1  0  0  0
  1 45  1  0  0  0
  2 43  1  0  0  0
  2 50  1  0  0  0
  3 16  1  0  0  0
  3 51  1  0  0  0
  4 22  2  0  0  0
  5 29  1  0  0  0
  5 41  1  0  0  0
  6 29  2  0  0  0
  7 32  2  0  0  0
  8 14  1  0  0  0
  8 22  1  0  0  0
  8 52  1  0  0  0
  9 17  1  0  0  0
  9 29  1  0  0  0
  9 53  1  0  0  0
 10 20  1  0  0  0
 10 32  1  0  0  0
 10 54  1  0  0  0
 11 32  1  0  0  0
 11 39  1  0  0  0
 11 40  1  0  0  0
 12 42  1  0  0  0
 12 44  2  0  0  0
 13 49  1  0  0  0
 13 50  2  0  0  0
 14 15  1  0  0  0
 14 18  1  0  0  0
 15 16  1  0  0  0
 16 17  1  0  0  0
 17 19  1  0  0  0
 18 23  1  0  0  0
 19 24  1  0  0  0
 20 21  1  0  0  0
 20 22  1  0  0  0
 21 25  1  0  0  0
 21 26  1  0  0  0
 23 27  2  0  0  0
 23 28  1  0  0  0
 24 30  2  0  0  0
 24 31  1  0  0  0
 27 33  1  0  0  0
 28 34  2  0  0  0
 30 35  1  0  0  0
 31 36  2  0  0  0
 33 37  2  0  0  0
 34 37  1  0  0  0
 35 38  2  0  0  0
 36 38  1  0  0  0
 39 42  1  0  0  0
 41 43  1  0  0  0
 42 45  2  0  0  0
 43 49  2  0  0  0
 44 46  1  0  0  0
 46 47  1  0  0  0
 46 48  1  0  0  0
M  END
>  <CHROM.0>
-143.47080618,159.50770920,-72.56462596

>  <CHROM.1>
77.88385333,86.89673584,-43.17294417,176.21139136,-64.09505008,-160.39251257
130.42660185,64.43868939,-154.90127395,-151.30348713,-4.55900946,-167.19601702
-147.47160823,-123.47871052,70.07617673,-57.88518611,83.33361567,124.81018991
-137.33374852,-48.12082363,-2.17051969,18.82272478,-0.73865469,0.08859782
-2.97947366

>  <HEADER>
                                                                          

>  <MASTER>
        0    0    0    0    0    0    0    0   98    0   98    0          

>  <Name>
Ritonavir.pdb

>  <RI>
-1.00668e+09

>  <Rbt.Current_Directory>
/root/miniconda3/envs/rdock/share/rxdock-2013.1.1_148c5bd1-0/data/ligands/prepped_ligands/Ritonavir

>  <Rbt.Executable>
rbdock/0.1.0

>  <Rbt.Library>
librxdock.so/0.1.0

>  <Rbt.Parameter_File>
/root/miniconda3/envs/rdock/share/rxdock-2013.1.1_148c5bd1-0/data/scripts/dock.prm

>  <Rbt.Receptor>
def.prm

>  <SCORE>
25.5255

>  <SCORE.INTER>
2.99595

>  <SCORE.INTER.CONST>
1

>  <SCORE.INTER.POLAR>
-0.00261318

>  <SCORE.INTER.REPUL>
0

>  <SCORE.INTER.ROT>
18

>  <SCORE.INTER.VDW>
-20.3952

>  <SCORE.INTER.norm>
0.059919

>  <SCORE.INTRA>
9.19098

>  <SCORE.INTRA.DIHEDRAL>
21.1445

>  <SCORE.INTRA.DIHEDRAL.0>
28.8748

>  <SCORE.INTRA.POLAR>
0

>  <SCORE.INTRA.POLAR.0>
0

>  <SCORE.INTRA.REPUL>
0

>  <SCORE.INTRA.REPUL.0>
0

>  <SCORE.INTRA.VDW>
-1.38126

>  <SCORE.INTRA.VDW.0>
-1.74536

>  <SCORE.INTRA.norm>
0.18382

>  <SCORE.RESTR>
11.6508

>  <SCORE.RESTR.CAVITY>
11.6508

>  <SCORE.RESTR.norm>
0.233016

>  <SCORE.SYSTEM>
1.68773

>  <SCORE.SYSTEM.CONST>
0

>  <SCORE.SYSTEM.DIHEDRAL>
4.65636

>  <SCORE.SYSTEM.VDW>
-0.64045

>  <SCORE.SYSTEM.norm>
0.0337546

>  <SCORE.heavy>
50

>  <SCORE.norm>
0.510509

>  <TITLE>
    Ritonavir_D                                                           

$$$$
