Ritonavir.pdb
  RxDock  02242113123D
librxdock.so/0.1.0
 54 57  0  0  0  0  0  0  0  0999 V2000
  -44.7012   -1.3544   21.7477 S   0  0  0  0  0  0
  -51.5992   -7.8290   19.6881 S   0  0  0  0  0  0
  -49.4845   -4.0926   13.4950 O   0  0  0  0  0  0
  -51.1778    0.3074   17.3264 O   0  0  0  0  0  0
  -49.7449   -6.9591   17.1278 O   0  0  0  0  0  0
  -50.0814   -4.7358   17.1143 O   0  0  0  0  0  0
  -48.2444   -0.4031   18.5947 O   0  0  0  0  0  0
  -50.5646   -1.7291   16.5155 N   0  0  0  0  0  0
  -50.8732   -6.0224   15.3940 N   0  0  0  0  0  0
  -50.1530   -0.4684   19.7854 N   0  0  0  0  0  0
  -48.4149    0.9481   20.3949 N   0  0  0  0  0  0
  -44.8067    0.3962   19.8593 N   0  0  0  0  0  0
  -51.5320   -5.7138   21.1539 N   0  0  0  0  0  0
  -50.5696   -1.2726   15.1167 C   0  0  0  0  0  0
  -51.1171   -2.4259   14.2501 C   0  0  0  0  0  0
  -50.4141   -3.7685   14.5423 C   0  0  0  0  0  0
  -51.4697   -4.8838   14.6791 C   0  0  0  0  0  0
  -49.1606   -0.8521   14.6433 C   0  0  0  0  0  0
  -52.7054   -4.3718   15.4501 C   0  0  0  0  0  0
  -50.7298   -1.4735   18.8803 C   0  0  0  0  0  0
  -52.0995   -1.9777   19.3843 C   0  0  0  0  0  0
  -50.8553   -0.8610   17.4994 C   0  0  0  0  0  0
  -49.1409    0.1204   13.4723 C   0  0  0  0  0  0
  -53.8341   -5.3818   15.5973 C   0  0  0  0  0  0
  -52.5496   -3.1965   18.5622 C   0  0  0  0  0  0
  -52.0131   -2.4108   20.8582 C   0  0  0  0  0  0
  -48.0276    0.2095   12.6646 C   0  0  0  0  0  0
  -50.2330    0.9185   13.2115 C   0  0  0  0  0  0
  -50.2337   -5.8251   16.5648 C   0  0  0  0  0  0
  -55.1292   -5.0236   15.2928 C   0  0  0  0  0  0
  -53.5708   -6.6614   16.0382 C   0  0  0  0  0  0
  -48.9088    0.0063   19.5536 C   0  0  0  0  0  0
  -48.0055    1.0886   11.6069 C   0  0  0  0  0  0
  -50.2139    1.7979   12.1528 C   0  0  0  0  0  0
  -56.1516   -5.9349   15.4266 C   0  0  0  0  0  0
  -54.5915   -7.5740   16.1721 C   0  0  0  0  0  0
  -49.0996    1.8836   11.3492 C   0  0  0  0  0  0
  -55.8829   -7.2107   15.8657 C   0  0  0  0  0  0
  -47.0684    1.4916   20.1519 C   0  0  0  0  0  0
  -49.1770    1.4525   21.5540 C   0  0  0  0  0  0
  -49.1774   -6.8318   18.4433 C   0  0  0  0  0  0
  -46.0053    0.4891   20.5548 C   0  0  0  0  0  0
  -50.2840   -6.6595   19.4638 C   0  0  0  0  0  0
  -44.0062   -0.5106   20.3466 C   0  0  0  0  0  0
  -46.1422   -0.3380   21.5723 C   0  0  0  0  0  0
  -42.6388   -0.8106   19.7696 C   0  0  0  0  0  0
  -41.8151    0.4664   19.5470 C   0  0  0  0  0  0
  -42.7479   -1.5585   18.4336 C   0  0  0  0  0  0
  -50.4337   -5.6549   20.3058 C   0  0  0  0  0  0
  -52.2504   -6.7846   20.9685 C   0  0  0  0  0  0
  -49.0582   -4.9901   13.6490 H   0  0  0  0  0  0
  -50.3664   -2.5679   16.6961 H   0  0  0  0  0  0
  -50.9442   -6.8326   15.0534 H   0  0  0  0  0  0
  -50.6310   -0.1685   20.4572 H   0  0  0  0  0  0
  1 44  1  0  0  0
  1 45  1  0  0  0
  2 43  1  0  0  0
  2 50  1  0  0  0
  3 16  1  0  0  0
  3 51  1  0  0  0
  4 22  2  0  0  0
  5 29  1  0  0  0
  5 41  1  0  0  0
  6 29  2  0  0  0
  7 32  2  0  0  0
  8 14  1  0  0  0
  8 22  1  0  0  0
  8 52  1  0  0  0
  9 17  1  0  0  0
  9 29  1  0  0  0
  9 53  1  0  0  0
 10 20  1  0  0  0
 10 32  1  0  0  0
 10 54  1  0  0  0
 11 32  1  0  0  0
 11 39  1  0  0  0
 11 40  1  0  0  0
 12 42  1  0  0  0
 12 44  2  0  0  0
 13 49  1  0  0  0
 13 50  2  0  0  0
 14 15  1  0  0  0
 14 18  1  0  0  0
 15 16  1  0  0  0
 16 17  1  0  0  0
 17 19  1  0  0  0
 18 23  1  0  0  0
 19 24  1  0  0  0
 20 21  1  0  0  0
 20 22  1  0  0  0
 21 25  1  0  0  0
 21 26  1  0  0  0
 23 27  2  0  0  0
 23 28  1  0  0  0
 24 30  2  0  0  0
 24 31  1  0  0  0
 27 33  1  0  0  0
 28 34  2  0  0  0
 30 35  1  0  0  0
 31 36  2  0  0  0
 33 37  2  0  0  0
 34 37  1  0  0  0
 35 38  2  0  0  0
 36 38  1  0  0  0
 39 42  1  0  0  0
 41 43  1  0  0  0
 42 45  2  0  0  0
 43 49  2  0  0  0
 44 46  1  0  0  0
 46 47  1  0  0  0
 46 48  1  0  0  0
M  END
>  <CHROM.0>
-55.95035223,69.02461627,177.96539979

>  <CHROM.1>
-176.82914977,6.29891138,74.15371638,-143.67851291,50.85783360,174.90286076
-75.02508100,-49.89268380,-156.60792352,-104.28613491,77.32429102,-61.82393383
-157.08631842,-131.18661699,-169.80554165,-37.87823861,146.08040374,57.51135941
-131.49269737,-49.68542535,-2.66379297,17.55694935,-0.08824483,0.72613685
2.15866181

>  <HEADER>
                                                                          

>  <MASTER>
        0    0    0    0    0    0    0    0   98    0   98    0          

>  <Name>
Ritonavir.pdb

>  <RI>
-1.03499e+09

>  <Rbt.Current_Directory>
/root/miniconda3/envs/rdock/share/rxdock-2013.1.1_148c5bd1-0/data/ligands/prepped_ligands/Ritonavir

>  <Rbt.Executable>
rbdock/0.1.0

>  <Rbt.Library>
librxdock.so/0.1.0

>  <Rbt.Parameter_File>
/root/miniconda3/envs/rdock/share/rxdock-2013.1.1_148c5bd1-0/data/scripts/dock.prm

>  <Rbt.Receptor>
def.prm

>  <SCORE>
-28.5985

>  <SCORE.INTER>
-19.35

>  <SCORE.INTER.CONST>
1

>  <SCORE.INTER.POLAR>
-1.79015

>  <SCORE.INTER.REPUL>
0.287822

>  <SCORE.INTER.ROT>
18

>  <SCORE.INTER.VDW>
-38.1026

>  <SCORE.INTER.norm>
-0.387001

>  <SCORE.INTRA>
-9.00738

>  <SCORE.INTRA.DIHEDRAL>
-8.16781

>  <SCORE.INTRA.DIHEDRAL.0>
28.8748

>  <SCORE.INTRA.POLAR>
-0.782115

>  <SCORE.INTRA.POLAR.0>
0

>  <SCORE.INTRA.REPUL>
0

>  <SCORE.INTRA.REPUL.0>
0

>  <SCORE.INTRA.VDW>
-2.26428

>  <SCORE.INTRA.VDW.0>
-1.74536

>  <SCORE.INTRA.norm>
-0.180148

>  <SCORE.RESTR>
0.688444

>  <SCORE.RESTR.CAVITY>
0.688444

>  <SCORE.RESTR.norm>
0.0137689

>  <SCORE.SYSTEM>
-0.92952

>  <SCORE.SYSTEM.CONST>
0

>  <SCORE.SYSTEM.DIHEDRAL>
0.443887

>  <SCORE.SYSTEM.VDW>
-1.15146

>  <SCORE.SYSTEM.norm>
-0.0185904

>  <SCORE.heavy>
50

>  <SCORE.norm>
-0.57197

>  <TITLE>
    Ritonavir_D                                                           

$$$$
Ritonavir.pdb
  RxDock  02242113133D
librxdock.so/0.1.0
 54 57  0  0  0  0  0  0  0  0999 V2000
  -45.1785    1.0202   19.1952 S   0  0  0  0  0  0
  -53.3838   -4.9693   17.2398 S   0  0  0  0  0  0
  -49.5955   -4.2436   18.1793 O   0  0  0  0  0  0
  -50.1402    0.0063   16.1443 O   0  0  0  0  0  0
  -53.3365   -2.6119   20.5975 O   0  0  0  0  0  0
  -51.4516   -1.4891   21.0902 O   0  0  0  0  0  0
  -46.8712    0.1609   15.5180 O   0  0  0  0  0  0
  -48.4584   -1.3303   16.8965 N   0  0  0  0  0  0
  -51.3413   -3.6878   20.4616 N   0  0  0  0  0  0
  -47.5196   -1.7556   14.5323 N   0  0  0  0  0  0
  -45.2819   -1.3626   15.0191 N   0  0  0  0  0  0
  -44.3563   -1.1260   18.0294 N   0  0  0  0  0  0
  -52.0873   -2.8407   16.5954 N   0  0  0  0  0  0
  -48.6833   -0.9710   18.3056 C   0  0  0  0  0  0
  -49.7926   -1.8937   18.8524 C   0  0  0  0  0  0
  -49.2667   -3.2995   19.2121 C   0  0  0  0  0  0
  -49.8748   -3.7490   20.5556 C   0  0  0  0  0  0
  -49.0771    0.5141   18.4653 C   0  0  0  0  0  0
  -49.4326   -5.1878   20.8988 C   0  0  0  0  0  0
  -48.9295   -1.3388   14.5592 C   0  0  0  0  0  0
  -49.8763   -2.5003   14.1870 C   0  0  0  0  0  0
  -49.2468   -0.8064   15.9426 C   0  0  0  0  0  0
  -48.3183    1.2660   19.5499 C   0  0  0  0  0  0
  -49.9691   -6.2640   19.9660 C   0  0  0  0  0  0
  -51.2859   -1.9606   13.8943 C   0  0  0  0  0  0
  -49.3794   -3.2264   12.9248 C   0  0  0  0  0  0
  -47.8187    2.5259   19.2991 C   0  0  0  0  0  0
  -48.1241    0.6940   20.7879 C   0  0  0  0  0  0
  -51.9887   -2.5376   20.7386 C   0  0  0  0  0  0
  -51.2503   -6.7446   20.1262 C   0  0  0  0  0  0
  -49.1777   -6.7680   18.9558 C   0  0  0  0  0  0
  -46.5698   -0.9389   15.0402 C   0  0  0  0  0  0
  -47.1308    3.2073   20.2761 C   0  0  0  0  0  0
  -47.4373    1.3745   21.7676 C   0  0  0  0  0  0
  -51.7370   -7.7188   19.2849 C   0  0  0  0  0  0
  -49.6625   -7.7416   18.1134 C   0  0  0  0  0  0
  -46.9400    2.6323   21.5123 C   0  0  0  0  0  0
  -50.9434   -8.2172   18.2777 C   0  0  0  0  0  0
  -44.2328   -0.4966   15.5822 C   0  0  0  0  0  0
  -44.8860   -2.6650   14.4486 C   0  0  0  0  0  0
  -53.8419   -3.7026   19.8078 C   0  0  0  0  0  0
  -44.5269   -0.1732   17.0335 C   0  0  0  0  0  0
  -53.2388   -3.6515   18.4187 C   0  0  0  0  0  0
  -44.6461   -0.6751   19.2182 C   0  0  0  0  0  0
  -44.9486    1.0086   17.4382 C   0  0  0  0  0  0
  -44.5449   -1.5144   20.4744 C   0  0  0  0  0  0
  -45.0315   -0.7530   21.7162 C   0  0  0  0  0  0
  -43.1029   -1.9784   20.7219 C   0  0  0  0  0  0
  -52.5416   -2.6612   17.8955 C   0  0  0  0  0  0
  -52.4379   -3.9923   16.0973 C   0  0  0  0  0  0
  -49.2203   -3.9592   17.2909 H   0  0  0  0  0  0
  -47.8105   -1.8902   16.6910 H   0  0  0  0  0  0
  -51.7898   -4.4064   20.2166 H   0  0  0  0  0  0
  -47.3089   -2.5421   14.2058 H   0  0  0  0  0  0
  1 44  1  0  0  0
  1 45  1  0  0  0
  2 43  1  0  0  0
  2 50  1  0  0  0
  3 16  1  0  0  0
  3 51  1  0  0  0
  4 22  2  0  0  0
  5 29  1  0  0  0
  5 41  1  0  0  0
  6 29  2  0  0  0
  7 32  2  0  0  0
  8 14  1  0  0  0
  8 22  1  0  0  0
  8 52  1  0  0  0
  9 17  1  0  0  0
  9 29  1  0  0  0
  9 53  1  0  0  0
 10 20  1  0  0  0
 10 32  1  0  0  0
 10 54  1  0  0  0
 11 32  1  0  0  0
 11 39  1  0  0  0
 11 40  1  0  0  0
 12 42  1  0  0  0
 12 44  2  0  0  0
 13 49  1  0  0  0
 13 50  2  0  0  0
 14 15  1  0  0  0
 14 18  1  0  0  0
 15 16  1  0  0  0
 16 17  1  0  0  0
 17 19  1  0  0  0
 18 23  1  0  0  0
 19 24  1  0  0  0
 20 21  1  0  0  0
 20 22  1  0  0  0
 21 25  1  0  0  0
 21 26  1  0  0  0
 23 27  2  0  0  0
 23 28  1  0  0  0
 24 30  2  0  0  0
 24 31  1  0  0  0
 27 33  1  0  0  0
 28 34  2  0  0  0
 30 35  1  0  0  0
 31 36  2  0  0  0
 33 37  2  0  0  0
 34 37  1  0  0  0
 35 38  2  0  0  0
 36 38  1  0  0  0
 39 42  1  0  0  0
 41 43  1  0  0  0
 42 45  2  0  0  0
 43 49  2  0  0  0
 44 46  1  0  0  0
 46 47  1  0  0  0
 46 48  1  0  0  0
M  END
>  <CHROM.0>
168.62169435,-61.26771320,-120.42615372

>  <CHROM.1>
57.77992090,161.40016271,-57.43729474,83.96044658,-86.95900640,-169.17202470
57.58239303,79.05444687,-132.59984562,-101.18431577,-66.16125848,53.78113000
135.14664681,-80.61736630,-166.37494778,154.20196187,73.73804127,168.94037611
3.19914531,-48.80932604,-2.09649058,18.16647821,0.12235172,0.68986774,1.38545961

>  <HEADER>
                                                                          

>  <MASTER>
        0    0    0    0    0    0    0    0   98    0   98    0          

>  <Name>
Ritonavir.pdb

>  <RI>
-1.03499e+09

>  <Rbt.Current_Directory>
/root/miniconda3/envs/rdock/share/rxdock-2013.1.1_148c5bd1-0/data/ligands/prepped_ligands/Ritonavir

>  <Rbt.Executable>
rbdock/0.1.0

>  <Rbt.Library>
librxdock.so/0.1.0

>  <Rbt.Parameter_File>
/root/miniconda3/envs/rdock/share/rxdock-2013.1.1_148c5bd1-0/data/scripts/dock.prm

>  <Rbt.Receptor>
def.prm

>  <SCORE>
6.63987

>  <SCORE.INTER>
2.57537

>  <SCORE.INTER.CONST>
1

>  <SCORE.INTER.POLAR>
-0.448836

>  <SCORE.INTER.REPUL>
0.0410069

>  <SCORE.INTER.ROT>
18

>  <SCORE.INTER.VDW>
-19.5036

>  <SCORE.INTER.norm>
0.0515074

>  <SCORE.INTRA>
1.13585

>  <SCORE.INTRA.DIHEDRAL>
-4.79297

>  <SCORE.INTRA.DIHEDRAL.0>
28.8748

>  <SCORE.INTRA.POLAR>
0

>  <SCORE.INTRA.POLAR.0>
0

>  <SCORE.INTRA.REPUL>
0

>  <SCORE.INTRA.REPUL.0>
0

>  <SCORE.INTRA.VDW>
3.53233

>  <SCORE.INTRA.VDW.0>
-1.74536

>  <SCORE.INTRA.norm>
0.0227169

>  <SCORE.RESTR>
1.32215

>  <SCORE.RESTR.CAVITY>
1.32215

>  <SCORE.RESTR.norm>
0.0264431

>  <SCORE.SYSTEM>
1.60649

>  <SCORE.SYSTEM.CONST>
0

>  <SCORE.SYSTEM.DIHEDRAL>
3.92512

>  <SCORE.SYSTEM.VDW>
-0.356066

>  <SCORE.SYSTEM.norm>
0.0321299

>  <SCORE.heavy>
50

>  <SCORE.norm>
0.132797

>  <TITLE>
    Ritonavir_D                                                           

$$$$
Ritonavir.pdb
  RxDock  02242113133D
librxdock.so/0.1.0
 54 57  0  0  0  0  0  0  0  0999 V2000
  -45.9298   -0.5662   23.5160 S   0  0  0  0  0  0
  -55.6096   -8.2056   14.7487 S   0  0  0  0  0  0
  -49.9206   -1.4895   17.5706 O   0  0  0  0  0  0
  -47.3770   -1.7580   13.9801 O   0  0  0  0  0  0
  -54.3049   -4.5255   15.0896 O   0  0  0  0  0  0
  -53.9683   -4.2861   17.3000 O   0  0  0  0  0  0
  -47.2621   -1.5951   17.7102 O   0  0  0  0  0  0
  -48.4585   -0.1832   15.2176 N   0  0  0  0  0  0
  -52.2996   -3.7546   15.8255 N   0  0  0  0  0  0
  -46.4913    0.2925   16.7573 N   0  0  0  0  0  0
  -47.3755    0.3162   18.9059 N   0  0  0  0  0  0
  -45.6319   -0.6812   20.9587 N   0  0  0  0  0  0
  -53.7639   -8.5408   16.5116 N   0  0  0  0  0  0
  -49.7790   -0.5318   14.6699 C   0  0  0  0  0  0
  -50.1346   -1.9472   15.1709 C   0  0  0  0  0  0
  -50.8309   -1.9279   16.5483 C   0  0  0  0  0  0
  -51.3604   -3.3379   16.8777 C   0  0  0  0  0  0
  -49.7949   -0.4764   13.1262 C   0  0  0  0  0  0
  -50.1967   -4.3483   16.9698 C   0  0  0  0  0  0
  -46.1089   -0.4328   15.5367 C   0  0  0  0  0  0
  -45.2102   -1.6482   15.8517 C   0  0  0  0  0  0
  -47.3720   -0.8671   14.8201 C   0  0  0  0  0  0
  -49.4455    0.8797   12.5293 C   0  0  0  0  0  0
  -50.5858   -5.7316   17.4707 C   0  0  0  0  0  0
  -44.4756   -2.1063   14.5811 C   0  0  0  0  0  0
  -44.1480   -1.2838   16.9034 C   0  0  0  0  0  0
  -50.2962    1.9509   12.6985 C   0  0  0  0  0  0
  -48.2791    1.0467   11.8157 C   0  0  0  0  0  0
  -53.5336   -4.1881   16.1542 C   0  0  0  0  0  0
  -49.8373   -6.8329   17.1171 C   0  0  0  0  0  0
  -51.6905   -5.8943   18.2795 C   0  0  0  0  0  0
  -47.0543   -0.3787   17.7867 C   0  0  0  0  0  0
  -49.9846    3.1772   12.1587 C   0  0  0  0  0  0
  -47.9644    2.2731   11.2758 C   0  0  0  0  0  0
  -50.1883   -8.0850   17.5676 C   0  0  0  0  0  0
  -52.0427   -7.1451   18.7314 C   0  0  0  0  0  0
  -48.8174    3.3398   11.4472 C   0  0  0  0  0  0
  -51.2908   -8.2413   18.3756 C   0  0  0  0  0  0
  -47.9743   -0.3974   20.0460 C   0  0  0  0  0  0
  -47.1496    1.7697   19.0277 C   0  0  0  0  0  0
  -55.4339   -5.3757   15.3564 C   0  0  0  0  0  0
  -46.9884   -0.4976   21.1930 C   0  0  0  0  0  0
  -54.9601   -6.7934   15.6039 C   0  0  0  0  0  0
  -44.9302   -0.7359   22.0565 C   0  0  0  0  0  0
  -47.3443   -0.4130   22.4596 C   0  0  0  0  0  0
  -43.4288   -0.9312   22.0759 C   0  0  0  0  0  0
  -42.7085    0.0500   21.1395 C   0  0  0  0  0  0
  -43.0461   -2.3613   21.6701 C   0  0  0  0  0  0
  -54.0318   -7.1790   16.4584 C   0  0  0  0  0  0
  -54.4973   -9.2279   15.6827 C   0  0  0  0  0  0
  -50.3902   -1.3697   18.4516 H   0  0  0  0  0  0
  -48.3926    0.4690   15.8056 H   0  0  0  0  0  0
  -52.0503   -3.7114   14.9808 H   0  0  0  0  0  0
  -46.3305    1.1530   16.8156 H   0  0  0  0  0  0
  1 44  1  0  0  0
  1 45  1  0  0  0
  2 43  1  0  0  0
  2 50  1  0  0  0
  3 16  1  0  0  0
  3 51  1  0  0  0
  4 22  2  0  0  0
  5 29  1  0  0  0
  5 41  1  0  0  0
  6 29  2  0  0  0
  7 32  2  0  0  0
  8 14  1  0  0  0
  8 22  1  0  0  0
  8 52  1  0  0  0
  9 17  1  0  0  0
  9 29  1  0  0  0
  9 53  1  0  0  0
 10 20  1  0  0  0
 10 32  1  0  0  0
 10 54  1  0  0  0
 11 32  1  0  0  0
 11 39  1  0  0  0
 11 40  1  0  0  0
 12 42  1  0  0  0
 12 44  2  0  0  0
 13 49  1  0  0  0
 13 50  2  0  0  0
 14 15  1  0  0  0
 14 18  1  0  0  0
 15 16  1  0  0  0
 16 17  1  0  0  0
 17 19  1  0  0  0
 18 23  1  0  0  0
 19 24  1  0  0  0
 20 21  1  0  0  0
 20 22  1  0  0  0
 21 25  1  0  0  0
 21 26  1  0  0  0
 23 27  2  0  0  0
 23 28  1  0  0  0
 24 30  2  0  0  0
 24 31  1  0  0  0
 27 33  1  0  0  0
 28 34  2  0  0  0
 30 35  1  0  0  0
 31 36  2  0  0  0
 33 37  2  0  0  0
 34 37  1  0  0  0
 35 38  2  0  0  0
 36 38  1  0  0  0
 39 42  1  0  0  0
 41 43  1  0  0  0
 42 45  2  0  0  0
 43 49  2  0  0  0
 44 46  1  0  0  0
 46 47  1  0  0  0
 46 48  1  0  0  0
M  END
>  <CHROM.0>
50.68892985,-84.60810201,107.07591283

>  <CHROM.1>
173.34116711,-19.28085279,-74.53684429,66.16934366,-127.41937890,-52.83729540
108.88795213,86.99622508,-59.41862947,-67.58857301,179.35246374,-67.37594574
-67.48990741,154.13877351,-162.06423774,-161.07766902,-36.21627441,-127.88660925
-129.99559390,-49.27400314,-2.47657876,16.95735218,-0.11291411,0.72231101
2.20199983

>  <HEADER>
                                                                          

>  <MASTER>
        0    0    0    0    0    0    0    0   98    0   98    0          

>  <Name>
Ritonavir.pdb

>  <RI>
-1.03499e+09

>  <Rbt.Current_Directory>
/root/miniconda3/envs/rdock/share/rxdock-2013.1.1_148c5bd1-0/data/ligands/prepped_ligands/Ritonavir

>  <Rbt.Executable>
rbdock/0.1.0

>  <Rbt.Library>
librxdock.so/0.1.0

>  <Rbt.Parameter_File>
/root/miniconda3/envs/rdock/share/rxdock-2013.1.1_148c5bd1-0/data/scripts/dock.prm

>  <Rbt.Receptor>
def.prm

>  <SCORE>
-22.6248

>  <SCORE.INTER>
-19.1572

>  <SCORE.INTER.CONST>
1

>  <SCORE.INTER.POLAR>
-0.54985

>  <SCORE.INTER.REPUL>
0.473104

>  <SCORE.INTER.ROT>
18

>  <SCORE.INTER.VDW>
-43.0532

>  <SCORE.INTER.norm>
-0.383144

>  <SCORE.INTRA>
-6.9604

>  <SCORE.INTRA.DIHEDRAL>
-8.63243

>  <SCORE.INTRA.DIHEDRAL.0>
28.8748

>  <SCORE.INTRA.POLAR>
0

>  <SCORE.INTRA.POLAR.0>
0

>  <SCORE.INTRA.REPUL>
0

>  <SCORE.INTRA.REPUL.0>
0

>  <SCORE.INTRA.VDW>
-2.64418

>  <SCORE.INTRA.VDW.0>
-1.74536

>  <SCORE.INTRA.norm>
-0.139208

>  <SCORE.RESTR>
0.930257

>  <SCORE.RESTR.CAVITY>
0.930257

>  <SCORE.RESTR.norm>
0.0186051

>  <SCORE.SYSTEM>
2.56256

>  <SCORE.SYSTEM.CONST>
0

>  <SCORE.SYSTEM.DIHEDRAL>
6.00701

>  <SCORE.SYSTEM.VDW>
-0.440944

>  <SCORE.SYSTEM.norm>
0.0512512

>  <SCORE.heavy>
50

>  <SCORE.norm>
-0.452495

>  <TITLE>
    Ritonavir_D                                                           

$$$$
Ritonavir.pdb
  RxDock  02242113133D
librxdock.so/0.1.0
 54 57  0  0  0  0  0  0  0  0999 V2000
  -45.1691    1.0764   19.2831 S   0  0  0  0  0  0
  -50.4603   -7.2346   18.5009 S   0  0  0  0  0  0
  -51.4317   -3.4537   14.4337 O   0  0  0  0  0  0
  -51.2095   -4.4519   19.3326 O   0  0  0  0  0  0
  -48.0348   -6.8933   16.6766 O   0  0  0  0  0  0
  -48.2661   -5.0348   17.9213 O   0  0  0  0  0  0
  -49.6104   -2.7020   18.6354 O   0  0  0  0  0  0
  -52.7426   -3.5399   17.9189 N   0  0  0  0  0  0
  -48.9259   -5.0319   15.7289 N   0  0  0  0  0  0
  -51.2324   -1.2122   19.0986 N   0  0  0  0  0  0
  -49.3385   -0.5820   17.9092 N   0  0  0  0  0  0
  -46.1236   -1.2862   18.8981 N   0  0  0  0  0  0
  -50.2441   -9.3301   19.9805 N   0  0  0  0  0  0
  -52.8238   -4.7491   17.0843 C   0  0  0  0  0  0
  -51.4576   -4.9314   16.3906 C   0  0  0  0  0  0
  -50.9309   -3.6197   15.7707 C   0  0  0  0  0  0
  -49.3893   -3.6365   15.7620 C   0  0  0  0  0  0
  -53.9598   -4.6539   16.0418 C   0  0  0  0  0  0
  -48.8438   -2.8752   14.5347 C   0  0  0  0  0  0
  -52.0325   -2.2371   19.7853 C   0  0  0  0  0  0
  -53.5038   -1.7987   19.9496 C   0  0  0  0  0  0
  -51.9392   -3.5279   18.9961 C   0  0  0  0  0  0
  -54.5536   -5.9894   15.6163 C   0  0  0  0  0  0
  -47.4852   -2.2202   14.7373 C   0  0  0  0  0  0
  -54.2831   -2.8524   20.7536 C   0  0  0  0  0  0
  -53.5941   -0.4648   20.7111 C   0  0  0  0  0  0
  -53.9113   -7.1663   15.9362 C   0  0  0  0  0  0
  -55.7346   -6.0326   14.9086 C   0  0  0  0  0  0
  -48.4079   -5.5984   16.8377 C   0  0  0  0  0  0
  -47.2934   -0.9003   14.3921 C   0  0  0  0  0  0
  -46.4357   -2.9420   15.2651 C   0  0  0  0  0  0
  -50.0413   -1.5460   18.5538 C   0  0  0  0  0  0
  -54.4439   -8.3749   15.5515 C   0  0  0  0  0  0
  -56.2703   -7.2407   14.5238 C   0  0  0  0  0  0
  -46.0653   -0.3064   14.5730 C   0  0  0  0  0  0
  -45.2073   -2.3500   15.4473 C   0  0  0  0  0  0
  -55.6249   -8.4134   14.8452 C   0  0  0  0  0  0
  -45.0219   -1.0310   15.1014 C   0  0  0  0  0  0
  -48.0463   -0.9269   17.2936 C   0  0  0  0  0  0
  -49.8187    0.8095   17.8007 C   0  0  0  0  0  0
  -47.6553   -7.6066   17.8665 C   0  0  0  0  0  0
  -46.8967   -0.4169   18.1397 C   0  0  0  0  0  0
  -48.8956   -8.0642   18.6067 C   0  0  0  0  0  0
  -45.1745   -0.6797   19.5553 C   0  0  0  0  0  0
  -46.5586    0.8557   18.2056 C   0  0  0  0  0  0
  -44.1940   -1.4004   20.4564 C   0  0  0  0  0  0
  -43.6565   -0.4879   21.5686 C   0  0  0  0  0  0
  -43.0029   -1.9501   19.6596 C   0  0  0  0  0  0
  -48.9976   -9.1052   19.4107 C   0  0  0  0  0  0
  -51.1290   -8.4475   19.6127 C   0  0  0  0  0  0
  -52.4349   -3.3868   14.4245 H   0  0  0  0  0  0
  -53.2258   -2.8348   17.7069 H   0  0  0  0  0  0
  -48.9967   -5.4940   14.9812 H   0  0  0  0  0  0
  -51.5458   -0.3957   19.0293 H   0  0  0  0  0  0
  1 44  1  0  0  0
  1 45  1  0  0  0
  2 43  1  0  0  0
  2 50  1  0  0  0
  3 16  1  0  0  0
  3 51  1  0  0  0
  4 22  2  0  0  0
  5 29  1  0  0  0
  5 41  1  0  0  0
  6 29  2  0  0  0
  7 32  2  0  0  0
  8 14  1  0  0  0
  8 22  1  0  0  0
  8 52  1  0  0  0
  9 17  1  0  0  0
  9 29  1  0  0  0
  9 53  1  0  0  0
 10 20  1  0  0  0
 10 32  1  0  0  0
 10 54  1  0  0  0
 11 32  1  0  0  0
 11 39  1  0  0  0
 11 40  1  0  0  0
 12 42  1  0  0  0
 12 44  2  0  0  0
 13 49  1  0  0  0
 13 50  2  0  0  0
 14 15  1  0  0  0
 14 18  1  0  0  0
 15 16  1  0  0  0
 16 17  1  0  0  0
 17 19  1  0  0  0
 18 23  1  0  0  0
 19 24  1  0  0  0
 20 21  1  0  0  0
 20 22  1  0  0  0
 21 25  1  0  0  0
 21 26  1  0  0  0
 23 27  2  0  0  0
 23 28  1  0  0  0
 24 30  2  0  0  0
 24 31  1  0  0  0
 27 33  1  0  0  0
 28 34  2  0  0  0
 30 35  1  0  0  0
 31 36  2  0  0  0
 33 37  2  0  0  0
 34 37  1  0  0  0
 35 38  2  0  0  0
 36 38  1  0  0  0
 39 42  1  0  0  0
 41 43  1  0  0  0
 42 45  2  0  0  0
 43 49  2  0  0  0
 44 46  1  0  0  0
 46 47  1  0  0  0
 46 48  1  0  0  0
M  END
>  <CHROM.0>
-78.34715726,65.40740128,-62.69651372

>  <CHROM.1>
62.04575817,8.57046005,80.00357963,-67.41742678,-105.66596614,-162.44269079
-103.79526641,-46.57125302,-152.13368041,-87.42604537,-95.57723786,-89.14519400
-13.11290469,-130.46561141,-176.18295263,101.53391425,106.26721291,-26.85806434
26.61096899,-49.62717321,-3.60206274,17.59175618,0.67362373,-0.07590548,0.15529606

>  <HEADER>
                                                                          

>  <MASTER>
        0    0    0    0    0    0    0    0   98    0   98    0          

>  <Name>
Ritonavir.pdb

>  <RI>
-1.03499e+09

>  <Rbt.Current_Directory>
/root/miniconda3/envs/rdock/share/rxdock-2013.1.1_148c5bd1-0/data/ligands/prepped_ligands/Ritonavir

>  <Rbt.Executable>
rbdock/0.1.0

>  <Rbt.Library>
librxdock.so/0.1.0

>  <Rbt.Parameter_File>
/root/miniconda3/envs/rdock/share/rxdock-2013.1.1_148c5bd1-0/data/scripts/dock.prm

>  <Rbt.Receptor>
def.prm

>  <SCORE>
-18.0427

>  <SCORE.INTER>
-18.0578

>  <SCORE.INTER.CONST>
1

>  <SCORE.INTER.POLAR>
-1.30967

>  <SCORE.INTER.REPUL>
0.0447795

>  <SCORE.INTER.ROT>
18

>  <SCORE.INTER.VDW>
-37.2288

>  <SCORE.INTER.norm>
-0.361156

>  <SCORE.INTRA>
-1.41548

>  <SCORE.INTRA.DIHEDRAL>
-2.78425

>  <SCORE.INTRA.DIHEDRAL.0>
28.8748

>  <SCORE.INTRA.POLAR>
0

>  <SCORE.INTRA.POLAR.0>
0

>  <SCORE.INTRA.REPUL>
0.1306

>  <SCORE.INTRA.REPUL.0>
0

>  <SCORE.INTRA.VDW>
-0.676358

>  <SCORE.INTRA.VDW.0>
-1.74536

>  <SCORE.INTRA.norm>
-0.0283097

>  <SCORE.RESTR>
1.94194

>  <SCORE.RESTR.CAVITY>
1.94194

>  <SCORE.RESTR.norm>
0.0388389

>  <SCORE.SYSTEM>
-0.511308

>  <SCORE.SYSTEM.CONST>
0

>  <SCORE.SYSTEM.DIHEDRAL>
0.943797

>  <SCORE.SYSTEM.VDW>
-0.983206

>  <SCORE.SYSTEM.norm>
-0.0102262

>  <SCORE.heavy>
50

>  <SCORE.norm>
-0.360853

>  <TITLE>
    Ritonavir_D                                                           

$$$$
Ritonavir.pdb
  RxDock  02242113133D
librxdock.so/0.1.0
 54 57  0  0  0  0  0  0  0  0999 V2000
  -43.5151   -1.5871   20.8892 S   0  0  0  0  0  0
  -52.4733   -3.8971   17.6561 S   0  0  0  0  0  0
  -48.7931   -3.8363   21.9065 O   0  0  0  0  0  0
  -47.6196   -4.0427   17.6830 O   0  0  0  0  0  0
  -53.0375   -6.6717   19.1085 O   0  0  0  0  0  0
  -52.8334   -6.4116   21.3327 O   0  0  0  0  0  0
  -46.3784   -0.6518   17.4089 O   0  0  0  0  0  0
  -48.6571   -2.0726   18.1557 N   0  0  0  0  0  0
  -51.0264   -6.0644   19.9705 N   0  0  0  0  0  0
  -46.4217   -2.1349   15.7166 N   0  0  0  0  0  0
  -44.4553   -1.0389   16.2920 N   0  0  0  0  0  0
  -44.8256    0.0814   19.4263 N   0  0  0  0  0  0
  -53.0126   -4.2719   15.1670 N   0  0  0  0  0  0
  -48.8453   -2.4101   19.5756 C   0  0  0  0  0  0
  -49.7228   -3.6776   19.6429 C   0  0  0  0  0  0
  -49.9239   -4.1799   21.0884 C   0  0  0  0  0  0
  -50.1279   -5.7080   21.0791 C   0  0  0  0  0  0
  -49.4958   -1.2503   20.3616 C   0  0  0  0  0  0
  -48.7769   -6.4363   20.9119 C   0  0  0  0  0  0
  -47.8503   -2.4043   15.9367 C   0  0  0  0  0  0
  -48.4116   -3.3980   14.8967 C   0  0  0  0  0  0
  -48.0273   -2.9389   17.3440 C   0  0  0  0  0  0
  -50.7139   -0.6270   19.6945 C   0  0  0  0  0  0
  -48.6962   -7.3724   19.7148 C   0  0  0  0  0  0
  -49.8764   -3.7331   15.2222 C   0  0  0  0  0  0
  -48.3711   -2.7903   13.4838 C   0  0  0  0  0  0
  -50.6517    0.6588   19.2019 C   0  0  0  0  0  0
  -51.8863   -1.3409   19.5791 C   0  0  0  0  0  0
  -52.3140   -6.3792   20.2188 C   0  0  0  0  0  0
  -49.4764   -8.5069   19.6679 C   0  0  0  0  0  0
  -47.8408   -7.0946   18.6697 C   0  0  0  0  0  0
  -45.7775   -1.2483   16.5079 C   0  0  0  0  0  0
  -51.7511    1.2260   18.6004 C   0  0  0  0  0  0
  -52.9873   -0.7761   18.9763 C   0  0  0  0  0  0
  -49.4039   -9.3556   18.5871 C   0  0  0  0  0  0
  -47.7672   -7.9415   17.5881 C   0  0  0  0  0  0
  -52.9204    0.5085   18.4861 C   0  0  0  0  0  0
  -48.5496   -9.0728   17.5464 C   0  0  0  0  0  0
  -43.7296   -0.0901   17.1526 C   0  0  0  0  0  0
  -43.7092   -1.7268   15.2202 C   0  0  0  0  0  0
  -52.3065   -6.7839   17.8749 C   0  0  0  0  0  0
  -43.8549   -0.4853   18.6106 C   0  0  0  0  0  0
  -52.5461   -5.5532   17.0240 C   0  0  0  0  0  0
  -44.7961   -0.3797   20.6458 C   0  0  0  0  0  0
  -43.0727   -1.3769   19.1861 C   0  0  0  0  0  0
  -45.7481    0.0762   21.7314 C   0  0  0  0  0  0
  -46.5249   -1.0976   22.3459 C   0  0  0  0  0  0
  -46.7577    1.1006   21.1953 C   0  0  0  0  0  0
  -52.8349   -5.5259   15.7370 C   0  0  0  0  0  0
  -52.8589   -3.3051   16.0266 C   0  0  0  0  0  0
  -48.7377   -2.8436   22.0556 H   0  0  0  0  0  0
  -48.9556   -1.3022   17.8510 H   0  0  0  0  0  0
  -50.7168   -6.0631   19.1449 H   0  0  0  0  0  0
  -45.9933   -2.5692   15.0861 H   0  0  0  0  0  0
  1 44  1  0  0  0
  1 45  1  0  0  0
  2 43  1  0  0  0
  2 50  1  0  0  0
  3 16  1  0  0  0
  3 51  1  0  0  0
  4 22  2  0  0  0
  5 29  1  0  0  0
  5 41  1  0  0  0
  6 29  2  0  0  0
  7 32  2  0  0  0
  8 14  1  0  0  0
  8 22  1  0  0  0
  8 52  1  0  0  0
  9 17  1  0  0  0
  9 29  1  0  0  0
  9 53  1  0  0  0
 10 20  1  0  0  0
 10 32  1  0  0  0
 10 54  1  0  0  0
 11 32  1  0  0  0
 11 39  1  0  0  0
 11 40  1  0  0  0
 12 42  1  0  0  0
 12 44  2  0  0  0
 13 49  1  0  0  0
 13 50  2  0  0  0
 14 15  1  0  0  0
 14 18  1  0  0  0
 15 16  1  0  0  0
 16 17  1  0  0  0
 17 19  1  0  0  0
 18 23  1  0  0  0
 19 24  1  0  0  0
 20 21  1  0  0  0
 20 22  1  0  0  0
 21 25  1  0  0  0
 21 26  1  0  0  0
 23 27  2  0  0  0
 23 28  1  0  0  0
 24 30  2  0  0  0
 24 31  1  0  0  0
 27 33  1  0  0  0
 28 34  2  0  0  0
 30 35  1  0  0  0
 31 36  2  0  0  0
 33 37  2  0  0  0
 34 37  1  0  0  0
 35 38  2  0  0  0
 36 38  1  0  0  0
 39 42  1  0  0  0
 41 43  1  0  0  0
 42 45  2  0  0  0
 43 49  2  0  0  0
 44 46  1  0  0  0
 46 47  1  0  0  0
 46 48  1  0  0  0
M  END
>  <CHROM.0>
158.56829839,-67.80964473,-175.10404438

>  <CHROM.1>
68.59942421,-171.86971553,-104.97203774,-62.16037136,-103.68194011,177.64768224
56.89375984,176.67516644,47.22862158,-29.33713375,-164.49874499,-2.38399063
-111.52930020,-66.23405927,175.82735814,-69.00522844,-95.68179270,46.14753868
-56.93566270,-48.78554017,-3.24839862,18.55999376,-0.65058900,0.11530616
3.08484141

>  <HEADER>
                                                                          

>  <MASTER>
        0    0    0    0    0    0    0    0   98    0   98    0          

>  <Name>
Ritonavir.pdb

>  <RI>
-1.03499e+09

>  <Rbt.Current_Directory>
/root/miniconda3/envs/rdock/share/rxdock-2013.1.1_148c5bd1-0/data/ligands/prepped_ligands/Ritonavir

>  <Rbt.Executable>
rbdock/0.1.0

>  <Rbt.Library>
librxdock.so/0.1.0

>  <Rbt.Parameter_File>
/root/miniconda3/envs/rdock/share/rxdock-2013.1.1_148c5bd1-0/data/scripts/dock.prm

>  <Rbt.Receptor>
def.prm

>  <SCORE>
-1.46996

>  <SCORE.INTER>
-3.01246

>  <SCORE.INTER.CONST>
1

>  <SCORE.INTER.POLAR>
-0.571514

>  <SCORE.INTER.REPUL>
0

>  <SCORE.INTER.ROT>
18

>  <SCORE.INTER.VDW>
-24.4693

>  <SCORE.INTER.norm>
-0.0602492

>  <SCORE.INTRA>
0.67907

>  <SCORE.INTRA.DIHEDRAL>
-0.232023

>  <SCORE.INTRA.DIHEDRAL.0>
28.8748

>  <SCORE.INTRA.POLAR>
0

>  <SCORE.INTRA.POLAR.0>
0

>  <SCORE.INTRA.REPUL>
0

>  <SCORE.INTRA.REPUL.0>
0

>  <SCORE.INTRA.VDW>
0.795081

>  <SCORE.INTRA.VDW.0>
-1.74536

>  <SCORE.INTRA.norm>
0.0135814

>  <SCORE.RESTR>
1.13629

>  <SCORE.RESTR.CAVITY>
1.13629

>  <SCORE.RESTR.norm>
0.0227258

>  <SCORE.SYSTEM>
-0.272862

>  <SCORE.SYSTEM.CONST>
0

>  <SCORE.SYSTEM.DIHEDRAL>
1.38382

>  <SCORE.SYSTEM.POLAR>
-0.0120357

>  <SCORE.SYSTEM.VDW>
-0.92385

>  <SCORE.SYSTEM.norm>
-0.00545724

>  <SCORE.heavy>
50

>  <SCORE.norm>
-0.0293992

>  <TITLE>
    Ritonavir_D                                                           

$$$$
Ritonavir.pdb
  RxDock  02242113143D
librxdock.so/0.1.0
 54 57  0  0  0  0  0  0  0  0999 V2000
  -44.5643    1.0553   23.0779 S   0  0  0  0  0  0
  -54.3714   -8.1234   15.1840 S   0  0  0  0  0  0
  -49.5046   -8.0403   16.6660 O   0  0  0  0  0  0
  -47.1436   -2.6790   17.9292 O   0  0  0  0  0  0
  -53.0846   -5.2878   14.5440 O   0  0  0  0  0  0
  -53.0805   -4.6048   16.6865 O   0  0  0  0  0  0
  -48.3997    0.1535   18.5363 O   0  0  0  0  0  0
  -49.0924   -3.1759   16.8632 N   0  0  0  0  0  0
  -51.9187   -6.4830   16.0831 N   0  0  0  0  0  0
  -46.9996   -0.2355   16.8177 N   0  0  0  0  0  0
  -46.4195    1.2372   18.5186 N   0  0  0  0  0  0
  -44.3986    1.2730   20.5153 N   0  0  0  0  0  0
  -56.5801   -7.6495   16.4184 N   0  0  0  0  0  0
  -49.3394   -4.3723   17.6834 C   0  0  0  0  0  0
  -49.2814   -5.5996   16.7500 C   0  0  0  0  0  0
  -49.8841   -6.8636   17.3991 C   0  0  0  0  0  0
  -51.4200   -6.7378   17.4431 C   0  0  0  0  0  0
  -50.7001   -4.3006   18.4111 C   0  0  0  0  0  0
  -52.0560   -8.0299   17.9996 C   0  0  0  0  0  0
  -47.9411   -1.1910   16.2153 C   0  0  0  0  0  0
  -47.5329   -1.5644   14.7738 C   0  0  0  0  0  0
  -48.0028   -2.4240   17.0949 C   0  0  0  0  0  0
  -50.9671   -2.9939   19.1449 C   0  0  0  0  0  0
  -51.5228   -8.4764   19.3532 C   0  0  0  0  0  0
  -47.6829   -0.3453   13.8490 C   0  0  0  0  0  0
  -46.0628   -2.0155   14.7222 C   0  0  0  0  0  0
  -51.9301   -2.1234   18.6814 C   0  0  0  0  0  0
  -50.2490   -2.6707   20.2752 C   0  0  0  0  0  0
  -52.7082   -5.4167   15.8416 C   0  0  0  0  0  0
  -50.3707   -9.2279   19.4309 C   0  0  0  0  0  0
  -52.1886   -8.1350   20.5113 C   0  0  0  0  0  0
  -47.3190    0.3780   17.9790 C   0  0  0  0  0  0
  -52.1725   -0.9408   19.3407 C   0  0  0  0  0  0
  -50.4908   -1.4886   20.9376 C   0  0  0  0  0  0
  -49.8876   -9.6341   20.6538 C   0  0  0  0  0  0
  -51.7070   -8.5397   21.7347 C   0  0  0  0  0  0
  -51.4533   -0.6223   20.4706 C   0  0  0  0  0  0
  -50.5553   -9.2895   21.8062 C   0  0  0  0  0  0
  -46.7392    1.9040   19.7917 C   0  0  0  0  0  0
  -45.1246    1.5350   17.8758 C   0  0  0  0  0  0
  -54.4941   -5.3737   14.2712 C   0  0  0  0  0  0
  -45.7167    1.5503   20.8533 C   0  0  0  0  0  0
  -55.1015   -6.5106   15.0676 C   0  0  0  0  0  0
  -43.6560    0.9980   21.5515 C   0  0  0  0  0  0
  -46.0030    1.4894   22.1388 C   0  0  0  0  0  0
  -42.1833    0.6598   21.4541 C   0  0  0  0  0  0
  -41.2943    1.8957   21.6554 C   0  0  0  0  0  0
  -41.8430    0.0314   20.0957 C   0  0  0  0  0  0
  -56.2201   -6.4773   15.7662 C   0  0  0  0  0  0
  -55.7253   -8.6131   16.2238 C   0  0  0  0  0  0
  -49.9164   -8.8672   17.0628 H   0  0  0  0  0  0
  -49.6645   -2.9604   16.2294 H   0  0  0  0  0  0
  -51.6909   -7.0290   15.4292 H   0  0  0  0  0  0
  -46.2273   -0.0878   16.4285 H   0  0  0  0  0  0
  1 44  1  0  0  0
  1 45  1  0  0  0
  2 43  1  0  0  0
  2 50  1  0  0  0
  3 16  1  0  0  0
  3 51  1  0  0  0
  4 22  2  0  0  0
  5 29  1  0  0  0
  5 41  1  0  0  0
  6 29  2  0  0  0
  7 32  2  0  0  0
  8 14  1  0  0  0
  8 22  1  0  0  0
  8 52  1  0  0  0
  9 17  1  0  0  0
  9 29  1  0  0  0
  9 53  1  0  0  0
 10 20  1  0  0  0
 10 32  1  0  0  0
 10 54  1  0  0  0
 11 32  1  0  0  0
 11 39  1  0  0  0
 11 40  1  0  0  0
 12 42  1  0  0  0
 12 44  2  0  0  0
 13 49  1  0  0  0
 13 50  2  0  0  0
 14 15  1  0  0  0
 14 18  1  0  0  0
 15 16  1  0  0  0
 16 17  1  0  0  0
 17 19  1  0  0  0
 18 23  1  0  0  0
 19 24  1  0  0  0
 20 21  1  0  0  0
 20 22  1  0  0  0
 21 25  1  0  0  0
 21 26  1  0  0  0
 23 27  2  0  0  0
 23 28  1  0  0  0
 24 30  2  0  0  0
 24 31  1  0  0  0
 27 33  1  0  0  0
 28 34  2  0  0  0
 30 35  1  0  0  0
 31 36  2  0  0  0
 33 37  2  0  0  0
 34 37  1  0  0  0
 35 38  2  0  0  0
 36 38  1  0  0  0
 39 42  1  0  0  0
 41 43  1  0  0  0
 42 45  2  0  0  0
 43 49  2  0  0  0
 44 46  1  0  0  0
 46 47  1  0  0  0
 46 48  1  0  0  0
M  END
>  <CHROM.0>
-140.55989043,61.34287596,167.92887276

>  <CHROM.1>
-178.14941051,-62.48753705,-43.16452280,-116.44406489,-125.87638116,168.57634301
119.80745935,-164.84489921,-48.56526072,-164.88326156,-66.61116669,174.54630965
110.49876594,-84.14450647,-67.49870423,-17.63003067,30.60674172,-45.74499589
-86.09007030,-49.41436501,-3.42090559,18.24641790,-0.23293620,0.78007535
2.28513153

>  <HEADER>
                                                                          

>  <MASTER>
        0    0    0    0    0    0    0    0   98    0   98    0          

>  <Name>
Ritonavir.pdb

>  <RI>
-1.03499e+09

>  <Rbt.Current_Directory>
/root/miniconda3/envs/rdock/share/rxdock-2013.1.1_148c5bd1-0/data/ligands/prepped_ligands/Ritonavir

>  <Rbt.Executable>
rbdock/0.1.0

>  <Rbt.Library>
librxdock.so/0.1.0

>  <Rbt.Parameter_File>
/root/miniconda3/envs/rdock/share/rxdock-2013.1.1_148c5bd1-0/data/scripts/dock.prm

>  <Rbt.Receptor>
def.prm

>  <SCORE>
5.76995

>  <SCORE.INTER>
0.329247

>  <SCORE.INTER.CONST>
1

>  <SCORE.INTER.POLAR>
-1.16953

>  <SCORE.INTER.REPUL>
0

>  <SCORE.INTER.ROT>
18

>  <SCORE.INTER.VDW>
-19.0943

>  <SCORE.INTER.norm>
0.00658495

>  <SCORE.INTRA>
1.21638

>  <SCORE.INTRA.DIHEDRAL>
3.52604

>  <SCORE.INTRA.DIHEDRAL.0>
28.8748

>  <SCORE.INTRA.POLAR>
0

>  <SCORE.INTRA.POLAR.0>
0

>  <SCORE.INTRA.REPUL>
0

>  <SCORE.INTRA.REPUL.0>
0

>  <SCORE.INTRA.VDW>
-0.546637

>  <SCORE.INTRA.VDW.0>
-1.74536

>  <SCORE.INTRA.norm>
0.0243277

>  <SCORE.RESTR>
3.2595

>  <SCORE.RESTR.CAVITY>
3.2595

>  <SCORE.RESTR.norm>
0.06519

>  <SCORE.SYSTEM>
0.964819

>  <SCORE.SYSTEM.CONST>
0

>  <SCORE.SYSTEM.DIHEDRAL>
3.00736

>  <SCORE.SYSTEM.VDW>
-0.53886

>  <SCORE.SYSTEM.norm>
0.0192964

>  <SCORE.heavy>
50

>  <SCORE.norm>
0.115399

>  <TITLE>
    Ritonavir_D                                                           

$$$$
Ritonavir.pdb
  RxDock  02242113143D
librxdock.so/0.1.0
 54 57  0  0  0  0  0  0  0  0999 V2000
  -47.0698    3.0190   22.0683 S   0  0  0  0  0  0
  -56.3615   -7.4480   16.0977 S   0  0  0  0  0  0
  -49.8816   -4.9810   13.8883 O   0  0  0  0  0  0
  -45.1596   -3.9287   17.3192 O   0  0  0  0  0  0
  -54.0301   -4.1935   15.1992 O   0  0  0  0  0  0
  -53.0420   -4.2064   17.2191 O   0  0  0  0  0  0
  -45.1371    0.4131   19.7109 O   0  0  0  0  0  0
  -47.1796   -2.8800   17.3431 N   0  0  0  0  0  0
  -51.9245   -5.0212   15.3946 N   0  0  0  0  0  0
  -44.6396   -1.7223   19.2037 N   0  0  0  0  0  0
  -44.0929   -0.8309   21.2786 N   0  0  0  0  0  0
  -46.5440    0.5364   21.6191 N   0  0  0  0  0  0
  -54.1965   -8.3870   15.0689 N   0  0  0  0  0  0
  -47.9226   -4.1120   17.0342 C   0  0  0  0  0  0
  -48.7216   -3.8639   15.7377 C   0  0  0  0  0  0
  -49.4775   -5.1221   15.2605 C   0  0  0  0  0  0
  -50.7108   -5.3530   16.1562 C   0  0  0  0  0  0
  -48.8638   -4.5214   18.1886 C   0  0  0  0  0  0
  -50.7742   -6.8221   16.6267 C   0  0  0  0  0  0
  -45.2460   -1.5887   17.8708 C   0  0  0  0  0  0
  -44.2182   -1.1163   16.8198 C   0  0  0  0  0  0
  -45.8433   -2.9254   17.4784 C   0  0  0  0  0  0
  -49.7261   -3.3960   18.7430 C   0  0  0  0  0  0
  -51.0292   -7.0089   18.1154 C   0  0  0  0  0  0
  -44.9104   -0.8964   15.4646 C   0  0  0  0  0  0
  -43.5785    0.2175   17.2429 C   0  0  0  0  0  0
  -50.7131   -2.8315   17.9639 C   0  0  0  0  0  0
  -49.5267   -2.9328   20.0249 C   0  0  0  0  0  0
  -52.9828   -4.4649   16.0186 C   0  0  0  0  0  0
  -50.1764   -7.7811   18.8734 C   0  0  0  0  0  0
  -52.1156   -6.4095   18.7166 C   0  0  0  0  0  0
  -44.6411   -0.6678   20.0492 C   0  0  0  0  0  0
  -51.4928   -1.8130   18.4609 C   0  0  0  0  0  0
  -50.3065   -1.9148   20.5250 C   0  0  0  0  0  0
  -50.4060   -7.9527   20.2193 C   0  0  0  0  0  0
  -52.3466   -6.5794   20.0622 C   0  0  0  0  0  0
  -51.2907   -1.3539   19.7429 C   0  0  0  0  0  0
  -51.4908   -7.3512   20.8143 C   0  0  0  0  0  0
  -44.0985    0.2993   22.2220 C   0  0  0  0  0  0
  -43.4844   -2.1041   21.7117 C   0  0  0  0  0  0
  -55.2837   -4.8166   15.5291 C   0  0  0  0  0  0
  -45.3661    1.1166   22.0714 C   0  0  0  0  0  0
  -55.1340   -6.3237   15.4838 C   0  0  0  0  0  0
  -47.5356    1.3813   21.5593 C   0  0  0  0  0  0
  -45.4344    2.4015   22.3588 C   0  0  0  0  0  0
  -48.9265    1.0011   21.0972 C   0  0  0  0  0  0
  -49.1695    1.3817   19.6293 C   0  0  0  0  0  0
  -50.0046    1.6725   21.9591 C   0  0  0  0  0  0
  -54.1101   -7.0024   15.0025 C   0  0  0  0  0  0
  -55.3088   -8.7935   15.6118 C   0  0  0  0  0  0
  -49.0869   -4.8698   13.2825 H   0  0  0  0  0  0
  -47.6189   -2.1231   17.4411 H   0  0  0  0  0  0
  -51.9496   -5.1830   14.5282 H   0  0  0  0  0  0
  -44.3006   -2.4939   19.4475 H   0  0  0  0  0  0
  1 44  1  0  0  0
  1 45  1  0  0  0
  2 43  1  0  0  0
  2 50  1  0  0  0
  3 16  1  0  0  0
  3 51  1  0  0  0
  4 22  2  0  0  0
  5 29  1  0  0  0
  5 41  1  0  0  0
  6 29  2  0  0  0
  7 32  2  0  0  0
  8 14  1  0  0  0
  8 22  1  0  0  0
  8 52  1  0  0  0
  9 17  1  0  0  0
  9 29  1  0  0  0
  9 53  1  0  0  0
 10 20  1  0  0  0
 10 32  1  0  0  0
 10 54  1  0  0  0
 11 32  1  0  0  0
 11 39  1  0  0  0
 11 40  1  0  0  0
 12 42  1  0  0  0
 12 44  2  0  0  0
 13 49  1  0  0  0
 13 50  2  0  0  0
 14 15  1  0  0  0
 14 18  1  0  0  0
 15 16  1  0  0  0
 16 17  1  0  0  0
 17 19  1  0  0  0
 18 23  1  0  0  0
 19 24  1  0  0  0
 20 21  1  0  0  0
 20 22  1  0  0  0
 21 25  1  0  0  0
 21 26  1  0  0  0
 23 27  2  0  0  0
 23 28  1  0  0  0
 24 30  2  0  0  0
 24 31  1  0  0  0
 27 33  1  0  0  0
 28 34  2  0  0  0
 30 35  1  0  0  0
 31 36  2  0  0  0
 33 37  2  0  0  0
 34 37  1  0  0  0
 35 38  2  0  0  0
 36 38  1  0  0  0
 39 42  1  0  0  0
 41 43  1  0  0  0
 42 45  2  0  0  0
 43 49  2  0  0  0
 44 46  1  0  0  0
 46 47  1  0  0  0
 46 48  1  0  0  0
M  END
>  <CHROM.0>
-78.07251088,-62.30269910,-55.64608158

>  <CHROM.1>
61.24351804,-58.37649131,-60.97613428,-123.32291875,-145.17276829,90.30837055
35.48244678,176.39597141,47.69504180,-163.40666381,-14.18832148,-107.26041310
66.99323015,-126.25703051,-176.12970193,-63.53039667,27.78372251,168.97769861
80.79699592,-49.31574349,-3.08086721,18.35122325,0.77815818,0.21094227,0.75081673

>  <HEADER>
                                                                          

>  <MASTER>
        0    0    0    0    0    0    0    0   98    0   98    0          

>  <Name>
Ritonavir.pdb

>  <RI>
-1.03499e+09

>  <Rbt.Current_Directory>
/root/miniconda3/envs/rdock/share/rxdock-2013.1.1_148c5bd1-0/data/ligands/prepped_ligands/Ritonavir

>  <Rbt.Executable>
rbdock/0.1.0

>  <Rbt.Library>
librxdock.so/0.1.0

>  <Rbt.Parameter_File>
/root/miniconda3/envs/rdock/share/rxdock-2013.1.1_148c5bd1-0/data/scripts/dock.prm

>  <Rbt.Receptor>
def.prm

>  <SCORE>
9.90613

>  <SCORE.INTER>
5.55758

>  <SCORE.INTER.CONST>
1

>  <SCORE.INTER.POLAR>
-0.311147

>  <SCORE.INTER.REPUL>
0.0476738

>  <SCORE.INTER.ROT>
18

>  <SCORE.INTER.VDW>
-17.0229

>  <SCORE.INTER.norm>
0.111152

>  <SCORE.INTRA>
1.71649

>  <SCORE.INTRA.DIHEDRAL>
10.7202

>  <SCORE.INTRA.DIHEDRAL.0>
28.8748

>  <SCORE.INTRA.POLAR>
-0.0778998

>  <SCORE.INTRA.POLAR.0>
0

>  <SCORE.INTRA.REPUL>
0

>  <SCORE.INTRA.REPUL.0>
0

>  <SCORE.INTRA.VDW>
-3.37875

>  <SCORE.INTRA.VDW.0>
-1.74536

>  <SCORE.INTRA.norm>
0.0343298

>  <SCORE.RESTR>
3.18787

>  <SCORE.RESTR.CAVITY>
3.18787

>  <SCORE.RESTR.norm>
0.0637574

>  <SCORE.SYSTEM>
-0.555807

>  <SCORE.SYSTEM.CONST>
0

>  <SCORE.SYSTEM.DIHEDRAL>
0.828322

>  <SCORE.SYSTEM.POLAR>
-0.0103226

>  <SCORE.SYSTEM.VDW>
-0.934872

>  <SCORE.SYSTEM.norm>
-0.0111161

>  <SCORE.heavy>
50

>  <SCORE.norm>
0.198123

>  <TITLE>
    Ritonavir_D                                                           

$$$$
Ritonavir.pdb
  RxDock  02242113143D
librxdock.so/0.1.0
 54 57  0  0  0  0  0  0  0  0999 V2000
  -45.9620    1.7940   20.4371 S   0  0  0  0  0  0
  -48.4750   -7.2352   20.3107 S   0  0  0  0  0  0
  -49.8557   -5.2797   17.8880 O   0  0  0  0  0  0
  -48.5701   -3.2994   15.8641 O   0  0  0  0  0  0
  -51.1331   -8.8928   18.2651 O   0  0  0  0  0  0
  -51.7750   -6.9465   19.1906 O   0  0  0  0  0  0
  -46.5436    0.4528   16.8798 O   0  0  0  0  0  0
  -49.5311   -1.5576   16.9701 N   0  0  0  0  0  0
  -51.5320   -7.1074   16.9197 N   0  0  0  0  0  0
  -46.5878   -1.2041   15.3573 N   0  0  0  0  0  0
  -44.6001   -0.5857   16.3897 N   0  0  0  0  0  0
  -45.4584   -0.4121   19.2038 N   0  0  0  0  0  0
  -46.8195   -8.2154   18.6003 N   0  0  0  0  0  0
  -50.2268   -2.4330   17.9266 C   0  0  0  0  0  0
  -51.1659   -3.3542   17.1201 C   0  0  0  0  0  0
  -51.1916   -4.7967   17.6687 C   0  0  0  0  0  0
  -51.9311   -5.7133   16.6738 C   0  0  0  0  0  0
  -51.0208   -1.6236   18.9757 C   0  0  0  0  0  0
  -53.4598   -5.5708   16.8356 C   0  0  0  0  0  0
  -48.0397   -1.0551   15.1790 C   0  0  0  0  0  0
  -48.4506   -1.1903   13.6968 C   0  0  0  0  0  0
  -48.7377   -2.0978   16.0295 C   0  0  0  0  0  0
  -51.9224   -2.4538   19.8785 C   0  0  0  0  0  0
  -54.2880   -6.4604   15.9198 C   0  0  0  0  0  0
  -49.9772   -1.3321   13.5819 C   0  0  0  0  0  0
  -48.0329    0.0569   12.8986 C   0  0  0  0  0  0
  -51.3726   -3.3214   20.7977 C   0  0  0  0  0  0
  -53.2924   -2.3460   19.7835 C   0  0  0  0  0  0
  -51.5015   -7.5894   18.1789 C   0  0  0  0  0  0
  -54.8742   -5.9363   14.7886 C   0  0  0  0  0  0
  -54.4601   -7.7961   16.2155 C   0  0  0  0  0  0
  -45.9353   -0.4080   16.2335 C   0  0  0  0  0  0
  -52.1843   -4.0747   21.6136 C   0  0  0  0  0  0
  -54.1068   -3.0977   20.5999 C   0  0  0  0  0  0
  -55.6248   -6.7385   13.9599 C   0  0  0  0  0  0
  -55.2097   -8.5999   15.3880 C   0  0  0  0  0  0
  -53.5530   -3.9630   21.5161 C   0  0  0  0  0  0
  -55.7921   -8.0709   14.2590 C   0  0  0  0  0  0
  -43.8719    0.2589   17.3509 C   0  0  0  0  0  0
  -43.8415   -1.5972   15.6282 C   0  0  0  0  0  0
  -50.3399   -9.2633   19.4063 C   0  0  0  0  0  0
  -44.7436    0.5818   18.5482 C   0  0  0  0  0  0
  -48.9738   -8.6146   19.3127 C   0  0  0  0  0  0
  -46.1461    0.0405   20.2152 C   0  0  0  0  0  0
  -44.8734    1.7986   19.0387 C   0  0  0  0  0  0
  -47.0110   -0.8386   21.0938 C   0  0  0  0  0  0
  -48.4798   -0.3900   21.0887 C   0  0  0  0  0  0
  -46.5090   -0.8451   22.5443 C   0  0  0  0  0  0
  -47.9877   -8.9608   18.5075 C   0  0  0  0  0  0
  -46.8979   -7.2715   19.4948 C   0  0  0  0  0  0
  -49.3760   -4.7282   18.5784 H   0  0  0  0  0  0
  -49.6377   -0.6852   17.0257 H   0  0  0  0  0  0
  -51.3206   -7.6240   16.2371 H   0  0  0  0  0  0
  -46.1598   -1.8246   14.9085 H   0  0  0  0  0  0
  1 44  1  0  0  0
  1 45  1  0  0  0
  2 43  1  0  0  0
  2 50  1  0  0  0
  3 16  1  0  0  0
  3 51  1  0  0  0
  4 22  2  0  0  0
  5 29  1  0  0  0
  5 41  1  0  0  0
  6 29  2  0  0  0
  7 32  2  0  0  0
  8 14  1  0  0  0
  8 22  1  0  0  0
  8 52  1  0  0  0
  9 17  1  0  0  0
  9 29  1  0  0  0
  9 53  1  0  0  0
 10 20  1  0  0  0
 10 32  1  0  0  0
 10 54  1  0  0  0
 11 32  1  0  0  0
 11 39  1  0  0  0
 11 40  1  0  0  0
 12 42  1  0  0  0
 12 44  2  0  0  0
 13 49  1  0  0  0
 13 50  2  0  0  0
 14 15  1  0  0  0
 14 18  1  0  0  0
 15 16  1  0  0  0
 16 17  1  0  0  0
 17 19  1  0  0  0
 18 23  1  0  0  0
 19 24  1  0  0  0
 20 21  1  0  0  0
 20 22  1  0  0  0
 21 25  1  0  0  0
 21 26  1  0  0  0
 23 27  2  0  0  0
 23 28  1  0  0  0
 24 30  2  0  0  0
 24 31  1  0  0  0
 27 33  1  0  0  0
 28 34  2  0  0  0
 30 35  1  0  0  0
 31 36  2  0  0  0
 33 37  2  0  0  0
 34 37  1  0  0  0
 35 38  2  0  0  0
 36 38  1  0  0  0
 39 42  1  0  0  0
 41 43  1  0  0  0
 42 45  2  0  0  0
 43 49  2  0  0  0
 44 46  1  0  0  0
 46 47  1  0  0  0
 46 48  1  0  0  0
M  END
>  <CHROM.0>
-43.69769986,-57.70884786,-179.40603550

>  <CHROM.1>
62.32363497,-35.78654169,-67.54293152,-61.38493810,46.43481333,140.07546773
34.24477011,140.45536775,171.81167776,-47.90439468,37.06762319,-58.27123041
68.00303131,-101.64437765,167.88445594,-60.99959821,47.67190816,105.86818755
58.76476522,-49.48271201,-3.60546960,17.91458118,-0.31784319,0.76085149,2.14819914

>  <HEADER>
                                                                          

>  <MASTER>
        0    0    0    0    0    0    0    0   98    0   98    0          

>  <Name>
Ritonavir.pdb

>  <RI>
-1.03499e+09

>  <Rbt.Current_Directory>
/root/miniconda3/envs/rdock/share/rxdock-2013.1.1_148c5bd1-0/data/ligands/prepped_ligands/Ritonavir

>  <Rbt.Executable>
rbdock/0.1.0

>  <Rbt.Library>
librxdock.so/0.1.0

>  <Rbt.Parameter_File>
/root/miniconda3/envs/rdock/share/rxdock-2013.1.1_148c5bd1-0/data/scripts/dock.prm

>  <Rbt.Receptor>
def.prm

>  <SCORE>
-9.07704

>  <SCORE.INTER>
-4.37702

>  <SCORE.INTER.CONST>
1

>  <SCORE.INTER.POLAR>
-0.397944

>  <SCORE.INTER.REPUL>
0.155453

>  <SCORE.INTER.ROT>
18

>  <SCORE.INTER.VDW>
-27.2013

>  <SCORE.INTER.norm>
-0.0875403

>  <SCORE.INTRA>
-4.06496

>  <SCORE.INTRA.DIHEDRAL>
-1.07681

>  <SCORE.INTRA.DIHEDRAL.0>
28.8748

>  <SCORE.INTRA.POLAR>
0

>  <SCORE.INTRA.POLAR.0>
0

>  <SCORE.INTRA.REPUL>
0

>  <SCORE.INTRA.REPUL.0>
0

>  <SCORE.INTRA.VDW>
-3.52655

>  <SCORE.INTRA.VDW.0>
-1.74536

>  <SCORE.INTRA.norm>
-0.0812992

>  <SCORE.RESTR>
0.0119578

>  <SCORE.RESTR.CAVITY>
0.0119578

>  <SCORE.RESTR.norm>
0.000239155

>  <SCORE.SYSTEM>
-0.647025

>  <SCORE.SYSTEM.CONST>
0

>  <SCORE.SYSTEM.DIHEDRAL>
0.632679

>  <SCORE.SYSTEM.POLAR>
-0.00345248

>  <SCORE.SYSTEM.VDW>
-0.951626

>  <SCORE.SYSTEM.norm>
-0.0129405

>  <SCORE.heavy>
50

>  <SCORE.norm>
-0.181541

>  <TITLE>
    Ritonavir_D                                                           

$$$$
Ritonavir.pdb
  RxDock  02242113143D
librxdock.so/0.1.0
 54 57  0  0  0  0  0  0  0  0999 V2000
  -51.2355   -7.8170   20.5053 S   0  0  0  0  0  0
  -44.0310    1.5728   22.0261 S   0  0  0  0  0  0
  -47.2120    2.6397   18.4787 O   0  0  0  0  0  0
  -49.7360   -3.1713   18.0597 O   0  0  0  0  0  0
  -42.9747    1.8542   18.1785 O   0  0  0  0  0  0
  -43.8532    0.1100   17.0637 O   0  0  0  0  0  0
  -51.2060   -4.9338   18.3495 O   0  0  0  0  0  0
  -50.1248   -0.9327   17.9242 N   0  0  0  0  0  0
  -45.1086    1.2185   18.6247 N   0  0  0  0  0  0
  -52.6199   -3.2575   17.8436 N   0  0  0  0  0  0
  -52.9101   -5.3771   16.9369 N   0  0  0  0  0  0
  -50.4781   -7.7131   18.0441 N   0  0  0  0  0  0
  -42.6385   -0.5617   21.6627 N   0  0  0  0  0  0
  -48.8004   -0.6474   17.3499 C   0  0  0  0  0  0
  -48.5664    0.8747   17.4471 C   0  0  0  0  0  0
  -47.5603    1.2473   18.5567 C   0  0  0  0  0  0
  -46.2963    0.3753   18.4202 C   0  0  0  0  0  0
  -48.6927   -1.1265   15.8853 C   0  0  0  0  0  0
  -46.3100   -0.7687   19.4567 C   0  0  0  0  0  0
  -51.8903   -2.3257   18.7163 C   0  0  0  0  0  0
  -51.9055   -2.7905   20.1886 C   0  0  0  0  0  0
  -50.4690   -2.2012   18.2045 C   0  0  0  0  0  0
  -47.2714   -1.3363   15.3819 C   0  0  0  0  0  0
  -47.0261   -0.4455   20.7601 C   0  0  0  0  0  0
  -51.2882   -1.7094   21.0909 C   0  0  0  0  0  0
  -53.3465   -3.0368   20.6684 C   0  0  0  0  0  0
  -46.4605   -0.2518   15.1248 C   0  0  0  0  0  0
  -46.7856   -2.6091   15.1784 C   0  0  0  0  0  0
  -43.9901    0.9963   17.9048 C   0  0  0  0  0  0
  -46.8736    0.7917   21.3467 C   0  0  0  0  0  0
  -47.8305   -1.3879   21.3651 C   0  0  0  0  0  0
  -52.2023   -4.5383   17.7333 C   0  0  0  0  0  0
  -45.1765   -0.4376   14.6679 C   0  0  0  0  0  0
  -45.5005   -2.7977   14.7226 C   0  0  0  0  0  0
  -47.5190    1.0855   22.5260 C   0  0  0  0  0  0
  -48.4769   -1.0959   22.5439 C   0  0  0  0  0  0
  -44.6946   -1.7114   14.4669 C   0  0  0  0  0  0
  -48.3215    0.1419   23.1247 C   0  0  0  0  0  0
  -52.4831   -6.7808   16.8148 C   0  0  0  0  0  0
  -54.0982   -4.9363   16.1802 C   0  0  0  0  0  0
  -42.9899    2.4767   19.4750 C   0  0  0  0  0  0
  -51.7833   -7.2398   18.0786 C   0  0  0  0  0  0
  -43.0556    1.4137   20.5527 C   0  0  0  0  0  0
  -50.0311   -8.0551   19.2205 C   0  0  0  0  0  0
  -52.3520   -7.2151   19.2678 C   0  0  0  0  0  0
  -48.6389   -8.6025   19.4551 C   0  0  0  0  0  0
  -47.5606   -7.5205   19.2959 C   0  0  0  0  0  0
  -48.3207   -9.7526   18.4897 C   0  0  0  0  0  0
  -42.4230    0.2560   20.5609 C   0  0  0  0  0  0
  -43.4545   -0.0303   22.5282 C   0  0  0  0  0  0
  -46.7122    2.8448   17.6307 H   0  0  0  0  0  0
  -50.6830   -0.2685   18.0752 H   0  0  0  0  0  0
  -45.1384    1.8722   19.2156 H   0  0  0  0  0  0
  -53.3348   -2.9792   17.4179 H   0  0  0  0  0  0
  1 44  1  0  0  0
  1 45  1  0  0  0
  2 43  1  0  0  0
  2 50  1  0  0  0
  3 16  1  0  0  0
  3 51  1  0  0  0
  4 22  2  0  0  0
  5 29  1  0  0  0
  5 41  1  0  0  0
  6 29  2  0  0  0
  7 32  2  0  0  0
  8 14  1  0  0  0
  8 22  1  0  0  0
  8 52  1  0  0  0
  9 17  1  0  0  0
  9 29  1  0  0  0
  9 53  1  0  0  0
 10 20  1  0  0  0
 10 32  1  0  0  0
 10 54  1  0  0  0
 11 32  1  0  0  0
 11 39  1  0  0  0
 11 40  1  0  0  0
 12 42  1  0  0  0
 12 44  2  0  0  0
 13 49  1  0  0  0
 13 50  2  0  0  0
 14 15  1  0  0  0
 14 18  1  0  0  0
 15 16  1  0  0  0
 16 17  1  0  0  0
 17 19  1  0  0  0
 18 23  1  0  0  0
 19 24  1  0  0  0
 20 21  1  0  0  0
 20 22  1  0  0  0
 21 25  1  0  0  0
 21 26  1  0  0  0
 23 27  2  0  0  0
 23 28  1  0  0  0
 24 30  2  0  0  0
 24 31  1  0  0  0
 27 33  1  0  0  0
 28 34  2  0  0  0
 30 35  1  0  0  0
 31 36  2  0  0  0
 33 37  2  0  0  0
 34 37  1  0  0  0
 35 38  2  0  0  0
 36 38  1  0  0  0
 39 42  1  0  0  0
 41 43  1  0  0  0
 42 45  2  0  0  0
 43 49  2  0  0  0
 44 46  1  0  0  0
 46 47  1  0  0  0
 46 48  1  0  0  0
M  END
>  <CHROM.0>
175.32379727,-153.66417418,-129.97011941

>  <CHROM.1>
-65.50301527,-155.79481484,54.92240346,-166.97029140,-143.45279587,-61.26703254
28.85534563,105.61367960,-158.98881043,171.00630946,15.46774690,89.75293021
-72.33622350,-40.82480790,-172.98982964,-56.21844798,-121.36790802,-140.62428136
-108.72381278,-48.09291719,-2.20436527,18.84521747,2.89650474,-0.78539312
-1.77362890

>  <HEADER>
                                                                          

>  <MASTER>
        0    0    0    0    0    0    0    0   98    0   98    0          

>  <Name>
Ritonavir.pdb

>  <RI>
-1.03499e+09

>  <Rbt.Current_Directory>
/root/miniconda3/envs/rdock/share/rxdock-2013.1.1_148c5bd1-0/data/ligands/prepped_ligands/Ritonavir

>  <Rbt.Executable>
rbdock/0.1.0

>  <Rbt.Library>
librxdock.so/0.1.0

>  <Rbt.Parameter_File>
/root/miniconda3/envs/rdock/share/rxdock-2013.1.1_148c5bd1-0/data/scripts/dock.prm

>  <Rbt.Receptor>
def.prm

>  <SCORE>
4.74082

>  <SCORE.INTER>
-4.55831

>  <SCORE.INTER.CONST>
1

>  <SCORE.INTER.POLAR>
-1.69106

>  <SCORE.INTER.REPUL>
0

>  <SCORE.INTER.ROT>
18

>  <SCORE.INTER.VDW>
-22.2087

>  <SCORE.INTER.norm>
-0.0911662

>  <SCORE.INTRA>
4.08976

>  <SCORE.INTRA.DIHEDRAL>
3.48304

>  <SCORE.INTRA.DIHEDRAL.0>
28.8748

>  <SCORE.INTRA.POLAR>
0

>  <SCORE.INTRA.POLAR.0>
0

>  <SCORE.INTRA.REPUL>
0

>  <SCORE.INTRA.REPUL.0>
0

>  <SCORE.INTRA.VDW>
2.34823

>  <SCORE.INTRA.VDW.0>
-1.74536

>  <SCORE.INTRA.norm>
0.0817951

>  <SCORE.RESTR>
2.52809

>  <SCORE.RESTR.CAVITY>
2.52809

>  <SCORE.RESTR.norm>
0.0505617

>  <SCORE.SYSTEM>
2.68129

>  <SCORE.SYSTEM.CONST>
0

>  <SCORE.SYSTEM.DIHEDRAL>
6.32313

>  <SCORE.SYSTEM.VDW>
-0.480276

>  <SCORE.SYSTEM.norm>
0.0536258

>  <SCORE.heavy>
50

>  <SCORE.norm>
0.0948164

>  <TITLE>
    Ritonavir_D                                                           

$$$$
Ritonavir.pdb
  RxDock  02242113143D
librxdock.so/0.1.0
 54 57  0  0  0  0  0  0  0  0999 V2000
  -41.8811    0.9936   20.3244 S   0  0  0  0  0  0
  -55.3286   -5.4667   14.8977 S   0  0  0  0  0  0
  -53.9537   -4.5334   17.5598 O   0  0  0  0  0  0
  -49.1725   -3.7114   18.2860 O   0  0  0  0  0  0
  -54.1321   -8.9445   16.1328 O   0  0  0  0  0  0
  -52.7654   -8.7147   17.9036 O   0  0  0  0  0  0
  -45.5225   -1.9149   19.0795 O   0  0  0  0  0  0
  -50.1575   -1.7793   17.5951 N   0  0  0  0  0  0
  -53.0227   -6.9850   16.4260 N   0  0  0  0  0  0
  -47.2931   -1.0480   17.9941 N   0  0  0  0  0  0
  -45.1349   -0.7440   17.1889 N   0  0  0  0  0  0
  -43.5690   -0.8905   19.8319 N   0  0  0  0  0  0
  -57.3239   -6.0575   16.4131 N   0  0  0  0  0  0
  -51.2450   -2.4801   16.8939 C   0  0  0  0  0  0
  -51.6618   -3.6851   17.7629 C   0  0  0  0  0  0
  -52.6239   -4.6401   17.0248 C   0  0  0  0  0  0
  -52.1133   -6.0888   17.1562 C   0  0  0  0  0  0
  -50.8164   -2.9430   15.4838 C   0  0  0  0  0  0
  -50.6844   -6.2160   16.5858 C   0  0  0  0  0  0
  -48.2250   -1.6124   18.9816 C   0  0  0  0  0  0
  -48.9453   -0.5076   19.7846 C   0  0  0  0  0  0
  -49.2247   -2.4885   18.2530 C   0  0  0  0  0  0
  -50.0678   -1.8998   14.6661 C   0  0  0  0  0  0
  -49.6023   -6.4906   17.6201 C   0  0  0  0  0  0
  -48.2555   -0.3067   21.1439 C   0  0  0  0  0  0
  -48.8991    0.8331   19.0311 C   0  0  0  0  0  0
  -48.9192   -2.2456   13.9871 C   0  0  0  0  0  0
  -50.5304   -0.6040   14.5993 C   0  0  0  0  0  0
  -53.2631   -8.2281   16.8901 C   0  0  0  0  0  0
  -49.9216   -6.5481   18.9590 C   0  0  0  0  0  0
  -48.2948   -6.6816   17.2264 C   0  0  0  0  0  0
  -45.9650   -1.2603   18.1286 C   0  0  0  0  0  0
  -48.2390   -1.3050   13.2490 C   0  0  0  0  0  0
  -49.8523    0.3386   13.8602 C   0  0  0  0  0  0
  -48.9445   -6.7948   19.8961 C   0  0  0  0  0  0
  -47.3166   -6.9289   18.1616 C   0  0  0  0  0  0
  -48.7055   -0.0115   13.1841 C   0  0  0  0  0  0
  -47.6417   -6.9860   19.4976 C   0  0  0  0  0  0
  -43.6859   -0.9769   17.3062 C   0  0  0  0  0  0
  -45.6282    0.0495   16.0463 C   0  0  0  0  0  0
  -54.6636   -8.2884   14.9685 C   0  0  0  0  0  0
  -43.1533   -0.3978   18.6018 C   0  0  0  0  0  0
  -55.5736   -7.1531   15.3913 C   0  0  0  0  0  0
  -43.0042   -0.2840   20.8387 C   0  0  0  0  0  0
  -42.2760    0.5853   18.6458 C   0  0  0  0  0  0
  -43.2870   -0.6316   22.2851 C   0  0  0  0  0  0
  -44.7082   -1.1806   22.4778 C   0  0  0  0  0  0
  -43.1087    0.5892   23.1983 C   0  0  0  0  0  0
  -56.6421   -7.2407   16.1602 C   0  0  0  0  0  0
  -56.7759   -5.0296   15.8297 C   0  0  0  0  0  0
  -54.3219   -3.6051   17.4424 H   0  0  0  0  0  0
  -50.1304   -0.8992   17.5810 H   0  0  0  0  0  0
  -53.4124   -6.6990   15.6885 H   0  0  0  0  0  0
  -47.6096   -0.5956   17.3122 H   0  0  0  0  0  0
  1 44  1  0  0  0
  1 45  1  0  0  0
  2 43  1  0  0  0
  2 50  1  0  0  0
  3 16  1  0  0  0
  3 51  1  0  0  0
  4 22  2  0  0  0
  5 29  1  0  0  0
  5 41  1  0  0  0
  6 29  2  0  0  0
  7 32  2  0  0  0
  8 14  1  0  0  0
  8 22  1  0  0  0
  8 52  1  0  0  0
  9 17  1  0  0  0
  9 29  1  0  0  0
  9 53  1  0  0  0
 10 20  1  0  0  0
 10 32  1  0  0  0
 10 54  1  0  0  0
 11 32  1  0  0  0
 11 39  1  0  0  0
 11 40  1  0  0  0
 12 42  1  0  0  0
 12 44  2  0  0  0
 13 49  1  0  0  0
 13 50  2  0  0  0
 14 15  1  0  0  0
 14 18  1  0  0  0
 15 16  1  0  0  0
 16 17  1  0  0  0
 17 19  1  0  0  0
 18 23  1  0  0  0
 19 24  1  0  0  0
 20 21  1  0  0  0
 20 22  1  0  0  0
 21 25  1  0  0  0
 21 26  1  0  0  0
 23 27  2  0  0  0
 23 28  1  0  0  0
 24 30  2  0  0  0
 24 31  1  0  0  0
 27 33  1  0  0  0
 28 34  2  0  0  0
 30 35  1  0  0  0
 31 36  2  0  0  0
 33 37  2  0  0  0
 34 37  1  0  0  0
 35 38  2  0  0  0
 36 38  1  0  0  0
 39 42  1  0  0  0
 41 43  1  0  0  0
 42 45  2  0  0  0
 43 49  2  0  0  0
 44 46  1  0  0  0
 46 47  1  0  0  0
 46 48  1  0  0  0
M  END
>  <CHROM.0>
24.10496171,-170.40847847,-15.71934077

>  <CHROM.1>
61.53470250,179.84767635,-67.80911890,38.23973133,-145.38700439,114.56599346
-60.36822682,-170.03299748,-45.39650938,-107.96632477,59.23270800,-127.91239445
133.96080142,-2.91190372,-98.69570420,104.79747998,64.06174324,122.47001337
150.45526133,-49.22292410,-3.25441870,17.62156720,-0.21985665,0.58529447
2.47463073

>  <HEADER>
                                                                          

>  <MASTER>
        0    0    0    0    0    0    0    0   98    0   98    0          

>  <Name>
Ritonavir.pdb

>  <RI>
-1.03499e+09

>  <Rbt.Current_Directory>
/root/miniconda3/envs/rdock/share/rxdock-2013.1.1_148c5bd1-0/data/ligands/prepped_ligands/Ritonavir

>  <Rbt.Executable>
rbdock/0.1.0

>  <Rbt.Library>
librxdock.so/0.1.0

>  <Rbt.Parameter_File>
/root/miniconda3/envs/rdock/share/rxdock-2013.1.1_148c5bd1-0/data/scripts/dock.prm

>  <Rbt.Receptor>
def.prm

>  <SCORE>
0.44235

>  <SCORE.INTER>
-11.5726

>  <SCORE.INTER.CONST>
1

>  <SCORE.INTER.POLAR>
-2.38

>  <SCORE.INTER.REPUL>
0.0320631

>  <SCORE.INTER.ROT>
18

>  <SCORE.INTER.VDW>
-27.0409

>  <SCORE.INTER.norm>
-0.231452

>  <SCORE.INTRA>
8.08183

>  <SCORE.INTRA.DIHEDRAL>
-2.81273

>  <SCORE.INTRA.DIHEDRAL.0>
28.8748

>  <SCORE.INTRA.POLAR>
0

>  <SCORE.INTRA.POLAR.0>
0

>  <SCORE.INTRA.REPUL>
0

>  <SCORE.INTRA.REPUL.0>
0

>  <SCORE.INTRA.VDW>
9.48819

>  <SCORE.INTRA.VDW.0>
-1.74536

>  <SCORE.INTRA.norm>
0.161637

>  <SCORE.RESTR>
1.10197

>  <SCORE.RESTR.CAVITY>
1.10197

>  <SCORE.RESTR.norm>
0.0220394

>  <SCORE.SYSTEM>
2.83114

>  <SCORE.SYSTEM.CONST>
0

>  <SCORE.SYSTEM.DIHEDRAL>
5.81723

>  <SCORE.SYSTEM.POLAR>
-0.000632068

>  <SCORE.SYSTEM.VDW>
-0.0753259

>  <SCORE.SYSTEM.norm>
0.0566228

>  <SCORE.heavy>
50

>  <SCORE.norm>
0.008847

>  <TITLE>
    Ritonavir_D                                                           

$$$$
