Ritonavir.pdb
 OpenBabel02182114013D

 98101  0  0  1  0  0  0  0  0999 V2000
   10.0470   -8.3990   23.5340 S   0  0  0  0  0  0  0  0  0  0  0  0
   14.3880    8.3960   14.9640 S   0  0  0  0  0  0  0  0  0  0  0  0
   12.6870    3.4790   18.4800 O   0  0  0  0  0  0  0  0  0  0  0  0
   12.0150    0.9400   22.0160 O   0  0  0  0  0  0  0  0  0  0  0  0
   14.5450    7.2700   18.0330 O   0  0  0  0  0  0  0  0  0  0  0  0
   14.8760    5.1390   18.6700 O   0  0  0  0  0  0  0  0  0  0  0  0
    9.5990   -2.7020   21.2700 O   0  0  0  0  0  0  0  0  0  0  0  0
   10.2410    0.9550   20.5900 N   0  0  0  0  0  0  0  0  0  0  0  0
   13.0620    6.2970   19.4510 N   0  0  0  0  0  0  0  0  0  0  0  0
   10.8430   -1.5910   22.7810 N   0  0  0  0  0  0  0  0  0  0  0  0
   11.2820   -3.8170   22.2800 N   0  0  0  0  0  0  0  0  0  0  0  0
    9.6310   -5.8560   23.4950 N   0  0  0  0  0  0  0  0  0  0  0  0
   15.1980    6.3760   13.5890 N   0  0  0  0  0  0  0  0  0  0  0  0
   10.9240    1.8120   19.6080 C   0  0  2  0  0  0  0  0  0  0  0  0
   10.9120    3.2540   20.1570 C   0  0  0  0  0  0  0  0  0  0  0  0
   11.7730    4.2150   19.3100 C   0  0  1  0  0  0  0  0  0  0  0  0
   12.5500    5.1670   20.2410 C   0  0  2  0  0  0  0  0  0  0  0  0
   10.2490    1.7480   18.2200 C   0  0  0  0  0  0  0  0  0  0  0  0
   11.6360    5.6900   21.3700 C   0  0  0  0  0  0  0  0  0  0  0  0
   10.0680   -0.3590   22.5720 C   0  0  1  0  0  0  0  0  0  0  0  0
    9.6890    0.3120   23.9100 C   0  0  0  0  0  0  0  0  0  0  0  0
   10.8850    0.5820   21.7090 C   0  0  0  0  0  0  0  0  0  0  0  0
   10.2460    0.3710   17.5710 C   0  0  0  0  0  0  0  0  0  0  0  0
   12.0520    5.2790   22.7750 C   0  0  0  0  0  0  0  0  0  0  0  0
    8.7620    1.5120   23.6560 C   0  0  0  0  0  0  0  0  0  0  0  0
    8.9410   -0.6750   24.8230 C   0  0  0  0  0  0  0  0  0  0  0  0
    9.3020    0.0570   16.6170 C   0  0  0  0  0  0  0  0  0  0  0  0
   11.1840   -0.5710   17.9320 C   0  0  0  0  0  0  0  0  0  0  0  0
   14.1920    6.1590   18.7280 C   0  0  0  0  0  0  0  0  0  0  0  0
   11.9180    6.1620   23.8240 C   0  0  0  0  0  0  0  0  0  0  0  0
   12.5680    4.0220   23.0090 C   0  0  0  0  0  0  0  0  0  0  0  0
   10.5340   -2.7040   22.0790 C   0  0  0  0  0  0  0  0  0  0  0  0
    9.2950   -1.1870   16.0300 C   0  0  0  0  0  0  0  0  0  0  0  0
   11.1800   -1.8160   17.3450 C   0  0  0  0  0  0  0  0  0  0  0  0
   12.2950    5.7930   25.0950 C   0  0  0  0  0  0  0  0  0  0  0  0
   12.9450    3.6510   24.2790 C   0  0  0  0  0  0  0  0  0  0  0  0
   10.2350   -2.1250   16.3930 C   0  0  0  0  0  0  0  0  0  0  0  0
   12.8080    4.5370   25.3230 C   0  0  0  0  0  0  0  0  0  0  0  0
   10.9740   -5.0360   21.5140 C   0  0  0  0  0  0  0  0  0  0  0  0
   12.3990   -3.8570   23.2440 C   0  0  0  0  0  0  0  0  0  0  0  0
   15.7310    7.1740   17.2250 C   0  0  0  0  0  0  0  0  0  0  0  0
   10.4810   -6.1360   22.4330 C   0  0  0  0  0  0  0  0  0  0  0  0
   15.3500    7.1350   15.7590 C   0  0  0  0  0  0  0  0  0  0  0  0
    9.3000   -6.9190   24.1740 C   0  0  0  0  0  0  0  0  0  0  0  0
   10.8140   -7.4030   22.2850 C   0  0  0  0  0  0  0  0  0  0  0  0
    8.3850   -6.8850   25.3800 C   0  0  0  0  0  0  0  0  0  0  0  0
    8.1740   -8.2820   25.9820 C   0  0  0  0  0  0  0  0  0  0  0  0
    7.0130   -6.2960   25.0240 C   0  0  0  0  0  0  0  0  0  0  0  0
   15.6610    6.1960   14.8860 C   0  0  0  0  0  0  0  0  0  0  0  0
   14.5140    7.4760   13.4500 C   0  0  0  0  0  0  0  0  0  0  0  0
   11.8620    1.4910   19.4790 H   0  0  0  0  0  0  0  0  0  0  0  0
   11.1710    4.7490   18.7150 H   0  0  0  0  0  0  0  0  0  0  0  0
   13.3110    4.6690   20.6570 H   0  0  0  0  0  0  0  0  0  0  0  0
    9.2100   -0.5860   22.1130 H   0  0  0  0  0  0  0  0  0  0  0  0
   13.4230    3.0640   19.0250 H   0  0  0  0  0  0  0  0  0  0  0  0
    9.4160    0.6900   20.4330 H   0  0  0  0  0  0  0  0  0  0  0  0
   12.6200    7.0600   19.4500 H   0  0  0  0  0  0  0  0  0  0  0  0
   11.5150   -1.5870   23.3450 H   0  0  0  0  0  0  0  0  0  0  0  0
   11.2640    3.2450   21.0930 H   0  0  0  0  0  0  0  0  0  0  0  0
    9.9690    3.5840   20.1250 H   0  0  0  0  0  0  0  0  0  0  0  0
   10.7280    2.3800   17.6100 H   0  0  0  0  0  0  0  0  0  0  0  0
    9.2900    1.9910   18.3630 H   0  0  0  0  0  0  0  0  0  0  0  0
   10.7100    5.3490   21.2050 H   0  0  0  0  0  0  0  0  0  0  0  0
   11.6990    6.6880   21.3410 H   0  0  0  0  0  0  0  0  0  0  0  0
   10.5360    0.6100   24.3510 H   0  0  0  0  0  0  0  0  0  0  0  0
    7.9000    1.3650   24.1420 H   0  0  0  0  0  0  0  0  0  0  0  0
    9.1960    2.3500   23.9860 H   0  0  0  0  0  0  0  0  0  0  0  0
    8.5870    1.6000   22.6760 H   0  0  0  0  0  0  0  0  0  0  0  0
    8.0360   -0.3030   25.0320 H   0  0  0  0  0  0  0  0  0  0  0  0
    8.8450   -1.5560   24.3600 H   0  0  0  0  0  0  0  0  0  0  0  0
    9.4560   -0.8060   25.6700 H   0  0  0  0  0  0  0  0  0  0  0  0
    8.6190    0.7370   16.3510 H   0  0  0  0  0  0  0  0  0  0  0  0
   11.8710   -0.3500   18.6240 H   0  0  0  0  0  0  0  0  0  0  0  0
   11.5450    7.0750   23.6610 H   0  0  0  0  0  0  0  0  0  0  0  0
   12.6690    3.3770   22.2510 H   0  0  0  0  0  0  0  0  0  0  0  0
    8.6080   -1.4100   15.3380 H   0  0  0  0  0  0  0  0  0  0  0  0
   11.8630   -2.4960   17.6100 H   0  0  0  0  0  0  0  0  0  0  0  0
   12.1970    6.4380   25.8530 H   0  0  0  0  0  0  0  0  0  0  0  0
   13.3180    2.7380   24.4430 H   0  0  0  0  0  0  0  0  0  0  0  0
   10.2310   -3.0290   15.9670 H   0  0  0  0  0  0  0  0  0  0  0  0
   13.0820    4.2680   26.2470 H   0  0  0  0  0  0  0  0  0  0  0  0
   11.7990   -5.3450   21.0400 H   0  0  0  0  0  0  0  0  0  0  0  0
   10.2560   -4.8260   20.8510 H   0  0  0  0  0  0  0  0  0  0  0  0
   12.8080   -4.7700   23.2310 H   0  0  0  0  0  0  0  0  0  0  0  0
   13.0870   -3.1770   22.9920 H   0  0  0  0  0  0  0  0  0  0  0  0
   12.0600   -3.6530   24.1620 H   0  0  0  0  0  0  0  0  0  0  0  0
   16.2310    6.3420   17.4630 H   0  0  0  0  0  0  0  0  0  0  0  0
   16.3110    7.9710   17.3930 H   0  0  0  0  0  0  0  0  0  0  0  0
   11.4160   -7.7530   21.5680 H   0  0  0  0  0  0  0  0  0  0  0  0
    8.8380   -6.3020   26.0540 H   0  0  0  0  0  0  0  0  0  0  0  0
    7.1950   -8.4830   26.0020 H   0  0  0  0  0  0  0  0  0  0  0  0
    8.6470   -8.9640   25.4250 H   0  0  0  0  0  0  0  0  0  0  0  0
    8.5440   -8.3070   26.9110 H   0  0  0  0  0  0  0  0  0  0  0  0
    6.3020   -6.9570   25.2660 H   0  0  0  0  0  0  0  0  0  0  0  0
    6.8690   -5.4460   25.5300 H   0  0  0  0  0  0  0  0  0  0  0  0
    6.9730   -6.1020   24.0440 H   0  0  0  0  0  0  0  0  0  0  0  0
   16.2020    5.3950   15.1440 H   0  0  0  0  0  0  0  0  0  0  0  0
   14.1050    7.7700   12.5860 H   0  0  0  0  0  0  0  0  0  0  0  0
  1 44  1  0  0  0  0
  1 45  1  0  0  0  0
  2 43  1  0  0  0  0
  2 50  1  0  0  0  0
  3 16  1  0  0  0  0
  3 55  1  0  0  0  0
  4 22  2  0  0  0  0
  5 29  1  0  0  0  0
  5 41  1  0  0  0  0
  6 29  2  0  0  0  0
  7 32  2  0  0  0  0
  8 14  1  0  0  0  0
  8 22  1  0  0  0  0
  8 56  1  0  0  0  0
  9 17  1  0  0  0  0
  9 29  1  0  0  0  0
  9 57  1  0  0  0  0
 10 20  1  0  0  0  0
 10 32  1  0  0  0  0
 10 58  1  0  0  0  0
 11 32  1  0  0  0  0
 11 39  1  0  0  0  0
 11 40  1  0  0  0  0
 12 42  1  0  0  0  0
 12 44  2  0  0  0  0
 13 49  1  0  0  0  0
 13 50  2  0  0  0  0
 14 15  1  0  0  0  0
 14 18  1  0  0  0  0
 14 51  1  6  0  0  0
 15 16  1  0  0  0  0
 15 59  1  0  0  0  0
 15 60  1  0  0  0  0
 16 17  1  0  0  0  0
 16 52  1  6  0  0  0
 17 19  1  0  0  0  0
 17 53  1  1  0  0  0
 18 23  1  0  0  0  0
 18 61  1  0  0  0  0
 18 62  1  0  0  0  0
 19 24  1  0  0  0  0
 19 63  1  0  0  0  0
 19 64  1  0  0  0  0
 20 21  1  0  0  0  0
 20 22  1  0  0  0  0
 20 54  1  6  0  0  0
 21 25  1  0  0  0  0
 21 26  1  0  0  0  0
 21 65  1  0  0  0  0
 23 27  2  0  0  0  0
 23 28  1  0  0  0  0
 24 30  2  0  0  0  0
 24 31  1  0  0  0  0
 25 66  1  0  0  0  0
 25 67  1  0  0  0  0
 25 68  1  0  0  0  0
 26 69  1  0  0  0  0
 26 70  1  0  0  0  0
 26 71  1  0  0  0  0
 27 33  1  0  0  0  0
 27 72  1  0  0  0  0
 28 34  2  0  0  0  0
 28 73  1  0  0  0  0
 30 35  1  0  0  0  0
 30 74  1  0  0  0  0
 31 36  2  0  0  0  0
 31 75  1  0  0  0  0
 33 37  2  0  0  0  0
 33 76  1  0  0  0  0
 34 37  1  0  0  0  0
 34 77  1  0  0  0  0
 35 38  2  0  0  0  0
 35 78  1  0  0  0  0
 36 38  1  0  0  0  0
 36 79  1  0  0  0  0
 37 80  1  0  0  0  0
 38 81  1  0  0  0  0
 39 42  1  0  0  0  0
 39 82  1  0  0  0  0
 39 83  1  0  0  0  0
 40 84  1  0  0  0  0
 40 85  1  0  0  0  0
 40 86  1  0  0  0  0
 41 43  1  0  0  0  0
 41 87  1  0  0  0  0
 41 88  1  0  0  0  0
 42 45  2  0  0  0  0
 43 49  2  0  0  0  0
 44 46  1  0  0  0  0
 45 89  1  0  0  0  0
 46 47  1  0  0  0  0
 46 48  1  0  0  0  0
 46 90  1  0  0  0  0
 47 91  1  0  0  0  0
 47 92  1  0  0  0  0
 47 93  1  0  0  0  0
 48 94  1  0  0  0  0
 48 95  1  0  0  0  0
 48 96  1  0  0  0  0
 49 97  1  0  0  0  0
 50 98  1  0  0  0  0
M  END
>  <HEADER>
                                                                          

>  <TITLE>
    Ritonavir_D                                                           

>  <MASTER>
        0    0    0    0    0    0    0    0   98    0   98    0          

$$$$
