Lopinavir.pdb
  RxDock  02242113043D
librxdock.so/0.1.0
 50 53  0  0  0  0  0  0  0  0999 V2000
  -47.0239   -8.9337   18.5980 C   0  0  0  0  0  0
  -49.4390   -9.2508   19.2001 C   0  0  0  0  0  0
  -49.6115   -7.7531   19.1241 N   0  0  0  0  0  0
  -48.5473   -6.9201   18.8066 C   0  0  0  0  0  0
  -47.3340   -7.4908   18.5594 N   0  0  0  0  0  0
  -46.4522   -2.0502   15.0744 C   0  0  0  0  0  0
  -45.7158   -0.9344   14.6077 C   0  0  0  0  0  0
  -44.4674   -0.5933   15.1842 C   0  0  0  0  0  0
  -43.9425   -1.3664   16.2370 C   0  0  0  0  0  0
  -44.6683   -2.4810   16.7113 C   0  0  0  0  0  0
  -45.9144   -2.8220   16.1354 C   0  0  0  0  0  0
  -48.6690   -5.7088   18.7452 O   0  0  0  0  0  0
  -50.9563   -7.1392   19.4034 C   0  0  0  0  0  0
  -51.5472   -6.5798   18.0804 C   0  0  0  0  0  0
  -50.9338   -5.4250   17.6740 N   0  0  0  0  0  0
  -51.2833   -4.6692   16.4509 C   0  0  0  0  0  0
  -50.8796   -6.0407   20.5361 C   0  0  0  0  0  0
  -52.2472   -5.7094   21.1638 C   0  0  0  0  0  0
  -49.9172   -6.4797   21.6641 C   0  0  0  0  0  0
  -52.4705   -7.1453   17.4921 O   0  0  0  0  0  0
  -51.1505   -1.1810   19.5190 C   0  0  0  0  0  0
  -52.0320   -1.5090   20.5767 C   0  0  0  0  0  0
  -53.0112   -2.5121   20.3886 C   0  0  0  0  0  0
  -53.1033   -3.1809   19.1467 C   0  0  0  0  0  0
  -52.2224   -2.8569   18.0791 C   0  0  0  0  0  0
  -51.2467   -1.8527   18.2768 C   0  0  0  0  0  0
  -52.3302   -3.5751   16.7640 C   0  0  0  0  0  0
  -50.0546   -3.9386   15.8666 C   0  0  0  0  0  0
  -50.2390   -2.6038   15.1217 C   0  0  0  0  0  0
  -49.0108   -1.6606   15.0499 C   0  0  0  0  0  0
  -48.6729   -1.2338   16.4278 N   0  0  0  0  0  0
  -49.1339   -0.0811   17.0096 C   0  0  0  0  0  0
  -48.6226    0.1597   18.4437 C   0  0  0  0  0  0
  -47.5085   -0.6929   18.7662 O   0  0  0  0  0  0
  -46.6850   -0.1943   19.7938 C   0  0  0  0  0  0
  -50.5788   -2.9454   13.7993 O   0  0  0  0  0  0
  -47.7836   -2.3980   14.4369 C   0  0  0  0  0  0
  -49.8854    0.7356   16.4662 O   0  0  0  0  0  0
  -45.5596    0.6577   19.5165 C   0  0  0  0  0  0
  -44.7674    1.1304   20.5971 C   0  0  0  0  0  0
  -45.0728    0.7774   21.9284 C   0  0  0  0  0  0
  -46.1751   -0.0544   22.2104 C   0  0  0  0  0  0
  -46.9863   -0.5446   21.1589 C   0  0  0  0  0  0
  -48.1460   -1.4202   21.4926 C   0  0  0  0  0  0
  -45.1857    1.0722   18.1130 C   0  0  0  0  0  0
  -48.2703   -9.7913   18.3496 C   0  0  0  0  0  0
  -46.6185   -6.8000   18.3324 H   0  0  0  0  0  0
  -50.1923   -5.1174   18.3030 H   0  0  0  0  0  0
  -48.0655   -1.7864   17.0329 H   0  0  0  0  0  0
  -50.8636   -2.1373   13.3874 H   0  0  0  0  0  0
  1  5  1  0  0  0
  1 46  1  0  0  0
  2  3  1  0  0  0
  2 46  1  0  0  0
  3  4  1  0  0  0
  3 13  1  0  0  0
  4  5  1  0  0  0
  4 12  2  0  0  0
  5 47  1  0  0  0
  6  7  2  0  0  0
  6 11  1  0  0  0
  6 37  1  0  0  0
  7  8  1  0  0  0
  8  9  2  0  0  0
  9 10  1  0  0  0
 10 11  2  0  0  0
 13 14  1  0  0  0
 13 17  1  0  0  0
 14 15  1  0  0  0
 14 20  2  0  0  0
 15 16  1  0  0  0
 15 48  1  0  0  0
 16 27  1  0  0  0
 16 28  1  0  0  0
 17 18  1  0  0  0
 17 19  1  0  0  0
 21 22  2  0  0  0
 21 26  1  0  0  0
 22 23  1  0  0  0
 23 24  2  0  0  0
 24 25  1  0  0  0
 25 26  2  0  0  0
 25 27  1  0  0  0
 28 29  1  0  0  0
 29 30  1  0  0  0
 29 36  1  0  0  0
 30 31  1  0  0  0
 30 37  1  0  0  0
 31 32  1  0  0  0
 31 49  1  0  0  0
 32 33  1  0  0  0
 32 38  2  0  0  0
 33 34  1  0  0  0
 34 35  1  0  0  0
 35 39  2  0  0  0
 35 43  1  0  0  0
 36 50  1  0  0  0
 39 40  1  0  0  0
 39 45  1  0  0  0
 40 41  2  0  0  0
 41 42  1  0  0  0
 42 43  2  0  0  0
 43 44  1  0  0  0
M  END
>  <CHROM.0>
37.93626387,-30.94503379,-40.03680193

>  <CHROM.1>
-109.98545806,-86.94999670,-74.11861966,-161.73780544,92.35229854,36.86565710
-148.58251345,-103.24236160,156.67941204,-64.06180158,168.80581542,-93.65665146
-141.78289350,14.47873887,156.38119578,-89.81773271,-48.85006225,-3.21134002
18.17125779,-2.70478948,0.93288651,0.92897695

>  <Name>
Lopinavir.pdb

>  <RI>
-9.60994e+08

>  <Rbt.Current_Directory>
/root/miniconda3/envs/rdock/share/rxdock-2013.1.1_148c5bd1-0/data/ligands/prepped_ligands/Lopinavir

>  <Rbt.Executable>
rbdock/0.1.0

>  <Rbt.Library>
librxdock.so/0.1.0

>  <Rbt.Parameter_File>
/root/miniconda3/envs/rdock/share/rxdock-2013.1.1_148c5bd1-0/data/scripts/dock.prm

>  <Rbt.Receptor>
def.prm

>  <SCORE>
2.41002

>  <SCORE.INTER>
-4.69635

>  <SCORE.INTER.CONST>
1

>  <SCORE.INTER.POLAR>
-0.665901

>  <SCORE.INTER.REPUL>
0

>  <SCORE.INTER.ROT>
15

>  <SCORE.INTER.VDW>
-22.8323

>  <SCORE.INTER.norm>
-0.102094

>  <SCORE.INTRA>
4.51356

>  <SCORE.INTRA.DIHEDRAL>
10.3249

>  <SCORE.INTRA.DIHEDRAL.0>
17.6555

>  <SCORE.INTRA.POLAR>
-0.596894

>  <SCORE.INTRA.POLAR.0>
-0.227187

>  <SCORE.INTRA.REPUL>
0

>  <SCORE.INTRA.REPUL.0>
0

>  <SCORE.INTRA.VDW>
1.38055

>  <SCORE.INTRA.VDW.0>
-8.98636

>  <SCORE.INTRA.norm>
0.0981208

>  <SCORE.RESTR>
0.089443

>  <SCORE.RESTR.CAVITY>
0.089443

>  <SCORE.RESTR.norm>
0.00194441

>  <SCORE.SYSTEM>
2.50337

>  <SCORE.SYSTEM.CONST>
0

>  <SCORE.SYSTEM.DIHEDRAL>
5.39183

>  <SCORE.SYSTEM.POLAR>
-0.0193083

>  <SCORE.SYSTEM.VDW>
-0.126902

>  <SCORE.SYSTEM.norm>
0.054421

>  <SCORE.heavy>
46

>  <SCORE.norm>
0.0523917

$$$$
Lopinavir.pdb
  RxDock  02242113043D
librxdock.so/0.1.0
 50 53  0  0  0  0  0  0  0  0999 V2000
  -52.6311   -4.6952   21.5959 C   0  0  0  0  0  0
  -52.0448   -6.7334   20.2552 C   0  0  0  0  0  0
  -50.8466   -5.9864   19.7213 N   0  0  0  0  0  0
  -50.5788   -4.6811   20.1106 C   0  0  0  0  0  0
  -51.4276   -4.0859   20.9961 N   0  0  0  0  0  0
  -48.8402   -0.8684   14.7701 C   0  0  0  0  0  0
  -50.1499   -0.4214   14.4695 C   0  0  0  0  0  0
  -50.4061    0.3566   13.3136 C   0  0  0  0  0  0
  -49.3518    0.6972   12.4452 C   0  0  0  0  0  0
  -48.0415    0.2578   12.7352 C   0  0  0  0  0  0
  -47.7856   -0.5194   13.8889 C   0  0  0  0  0  0
  -49.6180   -4.0628   19.6857 O   0  0  0  0  0  0
  -49.9219   -6.6567   18.7420 C   0  0  0  0  0  0
  -49.9562   -5.8833   17.3954 C   0  0  0  0  0  0
  -51.2247   -5.5275   17.0224 N   0  0  0  0  0  0
  -51.5640   -4.7821   15.7900 C   0  0  0  0  0  0
  -50.2638   -8.1884   18.5612 C   0  0  0  0  0  0
  -49.5788   -8.8304   17.3394 C   0  0  0  0  0  0
  -49.8695   -8.9926   19.8218 C   0  0  0  0  0  0
  -48.9282   -5.6383   16.7617 O   0  0  0  0  0  0
  -54.3585   -8.2451   16.1131 C   0  0  0  0  0  0
  -55.4113   -8.3050   15.1690 C   0  0  0  0  0  0
  -55.7082   -7.1720   14.3761 C   0  0  0  0  0  0
  -54.9519   -5.9879   14.5307 C   0  0  0  0  0  0
  -53.8935   -5.9192   15.4771 C   0  0  0  0  0  0
  -53.6042   -7.0570   16.2651 C   0  0  0  0  0  0
  -53.0969   -4.6548   15.6318 C   0  0  0  0  0  0
  -51.0116   -3.3405   15.8303 C   0  0  0  0  0  0
  -50.6380   -2.7001   17.1796 C   0  0  0  0  0  0
  -49.6423   -1.5124   17.1451 C   0  0  0  0  0  0
  -48.9360   -1.4616   18.4464 N   0  0  0  0  0  0
  -48.1415   -0.4193   18.8489 C   0  0  0  0  0  0
  -47.4925   -0.6082   20.2343 C   0  0  0  0  0  0
  -46.2016   -1.2382   20.1404 O   0  0  0  0  0  0
  -45.1948   -0.4047   19.6166 C   0  0  0  0  0  0
  -51.8431   -2.2168   17.7226 O   0  0  0  0  0  0
  -48.5927   -1.7047   16.0107 C   0  0  0  0  0  0
  -47.9209    0.6005   18.1868 O   0  0  0  0  0  0
  -44.7731   -0.4967   18.2444 C   0  0  0  0  0  0
  -43.7532    0.3737   17.7745 C   0  0  0  0  0  0
  -43.1569    1.3213   18.6329 C   0  0  0  0  0  0
  -43.5653    1.4212   19.9781 C   0  0  0  0  0  0
  -44.5783    0.5697   20.4811 C   0  0  0  0  0  0
  -44.9881    0.7036   21.9083 C   0  0  0  0  0  0
  -45.3765   -1.4882   17.2778 C   0  0  0  0  0  0
  -52.5409   -6.2254   21.6253 C   0  0  0  0  0  0
  -51.1464   -3.1319   21.2229 H   0  0  0  0  0  0
  -51.9406   -5.8274   17.6839 H   0  0  0  0  0  0
  -49.0037   -2.2158   19.1299 H   0  0  0  0  0  0
  -52.3637   -2.9861   17.9251 H   0  0  0  0  0  0
  1  5  1  0  0  0
  1 46  1  0  0  0
  2  3  1  0  0  0
  2 46  1  0  0  0
  3  4  1  0  0  0
  3 13  1  0  0  0
  4  5  1  0  0  0
  4 12  2  0  0  0
  5 47  1  0  0  0
  6  7  2  0  0  0
  6 11  1  0  0  0
  6 37  1  0  0  0
  7  8  1  0  0  0
  8  9  2  0  0  0
  9 10  1  0  0  0
 10 11  2  0  0  0
 13 14  1  0  0  0
 13 17  1  0  0  0
 14 15  1  0  0  0
 14 20  2  0  0  0
 15 16  1  0  0  0
 15 48  1  0  0  0
 16 27  1  0  0  0
 16 28  1  0  0  0
 17 18  1  0  0  0
 17 19  1  0  0  0
 21 22  2  0  0  0
 21 26  1  0  0  0
 22 23  1  0  0  0
 23 24  2  0  0  0
 24 25  1  0  0  0
 25 26  2  0  0  0
 25 27  1  0  0  0
 28 29  1  0  0  0
 29 30  1  0  0  0
 29 36  1  0  0  0
 30 31  1  0  0  0
 30 37  1  0  0  0
 31 32  1  0  0  0
 31 49  1  0  0  0
 32 33  1  0  0  0
 32 38  2  0  0  0
 33 34  1  0  0  0
 34 35  1  0  0  0
 35 39  2  0  0  0
 35 43  1  0  0  0
 36 50  1  0  0  0
 39 40  1  0  0  0
 39 45  1  0  0  0
 40 41  2  0  0  0
 41 42  1  0  0  0
 42 43  2  0  0  0
 43 44  1  0  0  0
M  END
>  <CHROM.0>
-68.04992196,177.09039944,74.82940548

>  <CHROM.1>
116.99506452,-24.61470331,-43.22120356,166.18870278,175.38619704,-62.50107416
-19.93433732,-137.92868876,158.35449197,-153.57350913,67.28176951,-169.21078869
102.77408791,90.90364726,72.34200404,-100.31947951,-49.62230927,-3.31925157
17.63697217,-2.85663917,-0.74055840,-0.97519922

>  <Name>
Lopinavir.pdb

>  <RI>
-9.60994e+08

>  <Rbt.Current_Directory>
/root/miniconda3/envs/rdock/share/rxdock-2013.1.1_148c5bd1-0/data/ligands/prepped_ligands/Lopinavir

>  <Rbt.Executable>
rbdock/0.1.0

>  <Rbt.Library>
librxdock.so/0.1.0

>  <Rbt.Parameter_File>
/root/miniconda3/envs/rdock/share/rxdock-2013.1.1_148c5bd1-0/data/scripts/dock.prm

>  <Rbt.Receptor>
def.prm

>  <SCORE>
-7.36163

>  <SCORE.INTER>
-12.5489

>  <SCORE.INTER.CONST>
1

>  <SCORE.INTER.POLAR>
-0.257525

>  <SCORE.INTER.REPUL>
0

>  <SCORE.INTER.ROT>
15

>  <SCORE.INTER.VDW>
-32.0733

>  <SCORE.INTER.norm>
-0.272802

>  <SCORE.INTRA>
5.78114

>  <SCORE.INTRA.DIHEDRAL>
10.0677

>  <SCORE.INTRA.DIHEDRAL.0>
17.6555

>  <SCORE.INTRA.POLAR>
-0.759725

>  <SCORE.INTRA.POLAR.0>
-0.227187

>  <SCORE.INTRA.REPUL>
0

>  <SCORE.INTRA.REPUL.0>
0

>  <SCORE.INTRA.VDW>
3.33036

>  <SCORE.INTRA.VDW.0>
-8.98636

>  <SCORE.INTRA.norm>
0.125677

>  <SCORE.RESTR>
0

>  <SCORE.RESTR.CAVITY>
0

>  <SCORE.RESTR.norm>
0

>  <SCORE.SYSTEM>
-0.593895

>  <SCORE.SYSTEM.CONST>
0

>  <SCORE.SYSTEM.DIHEDRAL>
0.710144

>  <SCORE.SYSTEM.POLAR>
-0.018748

>  <SCORE.SYSTEM.VDW>
-0.885224

>  <SCORE.SYSTEM.norm>
-0.0129108

>  <SCORE.heavy>
46

>  <SCORE.norm>
-0.160035

$$$$
Lopinavir.pdb
  RxDock  02242113043D
librxdock.so/0.1.0
 50 53  0  0  0  0  0  0  0  0999 V2000
  -51.9076   -7.4970   21.3256 C   0  0  0  0  0  0
  -49.6759   -6.4169   20.9406 C   0  0  0  0  0  0
  -49.7312   -6.9076   19.5142 N   0  0  0  0  0  0
  -50.8111   -7.6439   19.0465 C   0  0  0  0  0  0
  -51.8305   -7.9125   19.9112 N   0  0  0  0  0  0
  -45.4476   -0.8401   15.5112 C   0  0  0  0  0  0
  -44.6989   -1.3310   14.4140 C   0  0  0  0  0  0
  -43.4579   -1.9847   14.6138 C   0  0  0  0  0  0
  -42.9516   -2.1532   15.9165 C   0  0  0  0  0  0
  -43.6891   -1.6671   17.0183 C   0  0  0  0  0  0
  -44.9283   -1.0149   16.8190 C   0  0  0  0  0  0
  -50.8692   -8.0508   17.8989 O   0  0  0  0  0  0
  -48.5962   -6.6055   18.5739 C   0  0  0  0  0  0
  -49.1590   -5.9274   17.2949 C   0  0  0  0  0  0
  -49.6517   -4.6726   17.5350 N   0  0  0  0  0  0
  -50.2474   -3.7892   16.5083 C   0  0  0  0  0  0
  -47.7454   -7.8948   18.2428 C   0  0  0  0  0  0
  -46.2317   -7.7036   18.4581 C   0  0  0  0  0  0
  -48.2130   -9.0967   19.0960 C   0  0  0  0  0  0
  -49.1455   -6.4940   16.2008 O   0  0  0  0  0  0
  -53.4159   -3.7920   20.1366 C   0  0  0  0  0  0
  -53.3774   -2.4231   20.4945 C   0  0  0  0  0  0
  -52.8181   -1.4798   19.6013 C   0  0  0  0  0  0
  -52.3020   -1.9091   18.3575 C   0  0  0  0  0  0
  -52.3360   -3.2821   17.9907 C   0  0  0  0  0  0
  -52.8972   -4.2177   18.8903 C   0  0  0  0  0  0
  -51.7843   -3.7259   16.6657 C   0  0  0  0  0  0
  -49.7377   -2.3379   16.6456 C   0  0  0  0  0  0
  -48.3148   -1.9779   16.1809 C   0  0  0  0  0  0
  -47.8853   -0.4938   16.3087 C   0  0  0  0  0  0
  -47.3470   -0.2827   17.6727 N   0  0  0  0  0  0
  -47.2154    0.9468   18.2648 C   0  0  0  0  0  0
  -46.6054    0.9127   19.6800 C   0  0  0  0  0  0
  -45.7475   -0.2279   19.8669 O   0  0  0  0  0  0
  -44.6638    0.0072   20.7348 C   0  0  0  0  0  0
  -47.4440   -2.7336   16.9880 O   0  0  0  0  0  0
  -46.7759   -0.1489   15.2715 C   0  0  0  0  0  0
  -47.5307    2.0218   17.7434 O   0  0  0  0  0  0
  -44.6201   -0.5503   22.0601 C   0  0  0  0  0  0
  -43.4980   -0.2782   22.8881 C   0  0  0  0  0  0
  -42.4340    0.5247   22.4259 C   0  0  0  0  0  0
  -42.4663    1.0730   21.1279 C   0  0  0  0  0  0
  -43.5686    0.8235   20.2754 C   0  0  0  0  0  0
  -43.5696    1.4168   18.9076 C   0  0  0  0  0  0
  -45.7269   -1.4195   22.6086 C   0  0  0  0  0  0
  -51.0609   -6.2487   21.5999 C   0  0  0  0  0  0
  -52.5772   -8.4541   19.4754 H   0  0  0  0  0  0
  -49.5725   -4.3863   18.5107 H   0  0  0  0  0  0
  -47.0381   -1.0578   18.2596 H   0  0  0  0  0  0
  -47.7670   -2.6397   17.8772 H   0  0  0  0  0  0
  1  5  1  0  0  0
  1 46  1  0  0  0
  2  3  1  0  0  0
  2 46  1  0  0  0
  3  4  1  0  0  0
  3 13  1  0  0  0
  4  5  1  0  0  0
  4 12  2  0  0  0
  5 47  1  0  0  0
  6  7  2  0  0  0
  6 11  1  0  0  0
  6 37  1  0  0  0
  7  8  1  0  0  0
  8  9  2  0  0  0
  9 10  1  0  0  0
 10 11  2  0  0  0
 13 14  1  0  0  0
 13 17  1  0  0  0
 14 15  1  0  0  0
 14 20  2  0  0  0
 15 16  1  0  0  0
 15 48  1  0  0  0
 16 27  1  0  0  0
 16 28  1  0  0  0
 17 18  1  0  0  0
 17 19  1  0  0  0
 21 22  2  0  0  0
 21 26  1  0  0  0
 22 23  1  0  0  0
 23 24  2  0  0  0
 24 25  1  0  0  0
 25 26  2  0  0  0
 25 27  1  0  0  0
 28 29  1  0  0  0
 29 30  1  0  0  0
 29 36  1  0  0  0
 30 31  1  0  0  0
 30 37  1  0  0  0
 31 32  1  0  0  0
 31 49  1  0  0  0
 32 33  1  0  0  0
 32 38  2  0  0  0
 33 34  1  0  0  0
 34 35  1  0  0  0
 35 39  2  0  0  0
 35 43  1  0  0  0
 36 50  1  0  0  0
 39 40  1  0  0  0
 39 45  1  0  0  0
 40 41  2  0  0  0
 41 42  1  0  0  0
 42 43  2  0  0  0
 43 44  1  0  0  0
M  END
>  <CHROM.0>
178.08284194,63.54831621,-59.14995007

>  <CHROM.1>
-126.37759276,140.47803330,68.16509177,-128.51984582,105.95438238,56.77854531
75.24084408,75.33840510,178.18546357,86.53490048,-45.56753773,-161.35121482
-67.22990463,27.08176429,147.52199605,107.29478638,-47.94358661,-3.00271209
18.56534808,2.69550006,-0.65302957,-2.25621299

>  <Name>
Lopinavir.pdb

>  <RI>
-9.60994e+08

>  <Rbt.Current_Directory>
/root/miniconda3/envs/rdock/share/rxdock-2013.1.1_148c5bd1-0/data/ligands/prepped_ligands/Lopinavir

>  <Rbt.Executable>
rbdock/0.1.0

>  <Rbt.Library>
librxdock.so/0.1.0

>  <Rbt.Parameter_File>
/root/miniconda3/envs/rdock/share/rxdock-2013.1.1_148c5bd1-0/data/scripts/dock.prm

>  <Rbt.Receptor>
def.prm

>  <SCORE>
6.29619

>  <SCORE.INTER>
-3.50708

>  <SCORE.INTER.CONST>
1

>  <SCORE.INTER.POLAR>
-0.179159

>  <SCORE.INTER.REPUL>
0.000525823

>  <SCORE.INTER.ROT>
15

>  <SCORE.INTER.VDW>
-23.3006

>  <SCORE.INTER.norm>
-0.0762409

>  <SCORE.INTRA>
9.38938

>  <SCORE.INTRA.DIHEDRAL>
8.00729

>  <SCORE.INTRA.DIHEDRAL.0>
17.6555

>  <SCORE.INTRA.POLAR>
0.100863

>  <SCORE.INTRA.POLAR.0>
-0.227187

>  <SCORE.INTRA.REPUL>
0

>  <SCORE.INTRA.REPUL.0>
0

>  <SCORE.INTRA.VDW>
5.0428

>  <SCORE.INTRA.VDW.0>
-8.98636

>  <SCORE.INTRA.norm>
0.204117

>  <SCORE.RESTR>
1.4219

>  <SCORE.RESTR.CAVITY>
1.4219

>  <SCORE.RESTR.norm>
0.0309108

>  <SCORE.SYSTEM>
-1.00801

>  <SCORE.SYSTEM.CONST>
0

>  <SCORE.SYSTEM.DIHEDRAL>
0.0737194

>  <SCORE.SYSTEM.POLAR>
-0.00292386

>  <SCORE.SYSTEM.VDW>
-1.03493

>  <SCORE.SYSTEM.norm>
-0.0219132

>  <SCORE.heavy>
46

>  <SCORE.norm>
0.136874

$$$$
Lopinavir.pdb
  RxDock  02242113053D
librxdock.so/0.1.0
 50 53  0  0  0  0  0  0  0  0999 V2000
  -54.0089   -5.3438   16.3931 C   0  0  0  0  0  0
  -52.1990   -6.9682   17.0106 C   0  0  0  0  0  0
  -51.5475   -5.8713   17.8174 N   0  0  0  0  0  0
  -52.1055   -4.6024   17.8916 C   0  0  0  0  0  0
  -53.2668   -4.3689   17.2165 N   0  0  0  0  0  0
  -51.5642   -2.5718   20.9812 C   0  0  0  0  0  0
  -51.0125   -3.8344   21.3078 C   0  0  0  0  0  0
  -51.8110   -5.0046   21.2893 C   0  0  0  0  0  0
  -53.1733   -4.9229   20.9441 C   0  0  0  0  0  0
  -53.7347   -3.6691   20.6172 C   0  0  0  0  0  0
  -52.9374   -2.5009   20.6351 C   0  0  0  0  0  0
  -51.5898   -3.7048   18.5354 O   0  0  0  0  0  0
  -50.2641   -6.1448   18.5535 C   0  0  0  0  0  0
  -49.0923   -5.4408   17.8162 C   0  0  0  0  0  0
  -49.0885   -4.0844   18.0035 N   0  0  0  0  0  0
  -48.0920   -3.1556   17.4259 C   0  0  0  0  0  0
  -50.0097   -7.6926   18.7407 C   0  0  0  0  0  0
  -51.1648   -8.4232   19.4521 C   0  0  0  0  0  0
  -49.7631   -8.3786   17.3770 C   0  0  0  0  0  0
  -48.2759   -6.0729   17.1436 O   0  0  0  0  0  0
  -50.4623   -1.3208   13.6109 C   0  0  0  0  0  0
  -51.6410   -2.0984   13.7077 C   0  0  0  0  0  0
  -51.6516   -3.2592   14.5156 C   0  0  0  0  0  0
  -50.4861   -3.6354   15.2214 C   0  0  0  0  0  0
  -49.2979   -2.8605   15.1289 C   0  0  0  0  0  0
  -49.2972   -1.7016   14.3188 C   0  0  0  0  0  0
  -48.0656   -3.2707   15.8841 C   0  0  0  0  0  0
  -48.4380   -1.6846   17.7445 C   0  0  0  0  0  0
  -49.6163   -1.3597   18.6808 C   0  0  0  0  0  0
  -49.3562   -1.4667   20.2053 C   0  0  0  0  0  0
  -48.4508   -0.3624   20.5998 N   0  0  0  0  0  0
  -47.0887   -0.3943   20.4479 C   0  0  0  0  0  0
  -46.3590    0.8643   20.9572 C   0  0  0  0  0  0
  -44.9843    0.5912   21.2857 O   0  0  0  0  0  0
  -44.2800   -0.0935   20.2768 C   0  0  0  0  0  0
  -49.9641   -0.0229   18.4112 O   0  0  0  0  0  0
  -50.6872   -1.3348   21.0030 C   0  0  0  0  0  0
  -46.4516   -1.3357   19.9631 O   0  0  0  0  0  0
  -44.1887    0.4189   18.9357 C   0  0  0  0  0  0
  -43.4618   -0.3175   17.9622 C   0  0  0  0  0  0
  -42.8317   -1.5349   18.2958 C   0  0  0  0  0  0
  -42.9129   -2.0435   19.6077 C   0  0  0  0  0  0
  -43.6292   -1.3371   20.6036 C   0  0  0  0  0  0
  -43.6931   -1.9022   21.9818 C   0  0  0  0  0  0
  -44.8390    1.7173   18.5202 C   0  0  0  0  0  0
  -53.7197   -6.7876   16.8201 C   0  0  0  0  0  0
  -53.5992   -3.4117   17.3345 H   0  0  0  0  0  0
  -49.8531   -3.7548   18.5926 H   0  0  0  0  0  0
  -48.7989    0.5019   21.0151 H   0  0  0  0  0  0
  -49.1914    0.4925   18.6140 H   0  0  0  0  0  0
  1  5  1  0  0  0
  1 46  1  0  0  0
  2  3  1  0  0  0
  2 46  1  0  0  0
  3  4  1  0  0  0
  3 13  1  0  0  0
  4  5  1  0  0  0
  4 12  2  0  0  0
  5 47  1  0  0  0
  6  7  2  0  0  0
  6 11  1  0  0  0
  6 37  1  0  0  0
  7  8  1  0  0  0
  8  9  2  0  0  0
  9 10  1  0  0  0
 10 11  2  0  0  0
 13 14  1  0  0  0
 13 17  1  0  0  0
 14 15  1  0  0  0
 14 20  2  0  0  0
 15 16  1  0  0  0
 15 48  1  0  0  0
 16 27  1  0  0  0
 16 28  1  0  0  0
 17 18  1  0  0  0
 17 19  1  0  0  0
 21 22  2  0  0  0
 21 26  1  0  0  0
 22 23  1  0  0  0
 23 24  2  0  0  0
 24 25  1  0  0  0
 25 26  2  0  0  0
 25 27  1  0  0  0
 28 29  1  0  0  0
 29 30  1  0  0  0
 29 36  1  0  0  0
 30 31  1  0  0  0
 30 37  1  0  0  0
 31 32  1  0  0  0
 31 49  1  0  0  0
 32 33  1  0  0  0
 32 38  2  0  0  0
 33 34  1  0  0  0
 34 35  1  0  0  0
 35 39  2  0  0  0
 35 43  1  0  0  0
 36 50  1  0  0  0
 39 40  1  0  0  0
 39 45  1  0  0  0
 40 41  2  0  0  0
 41 42  1  0  0  0
 42 43  2  0  0  0
 43 44  1  0  0  0
M  END
>  <CHROM.0>
47.22472498,177.81086375,-58.86450176

>  <CHROM.1>
106.85835074,50.70968582,74.16247408,-55.95966296,57.57217437,64.96087647
5.76436940,-68.98692687,80.53033084,69.89104485,-60.72257167,-81.52221623
76.18081583,156.33496665,49.70203304,56.05944770,-49.14977955,-3.03348294
18.48963271,-2.91544964,0.61574781,1.58319101

>  <Name>
Lopinavir.pdb

>  <RI>
-9.60994e+08

>  <Rbt.Current_Directory>
/root/miniconda3/envs/rdock/share/rxdock-2013.1.1_148c5bd1-0/data/ligands/prepped_ligands/Lopinavir

>  <Rbt.Executable>
rbdock/0.1.0

>  <Rbt.Library>
librxdock.so/0.1.0

>  <Rbt.Parameter_File>
/root/miniconda3/envs/rdock/share/rxdock-2013.1.1_148c5bd1-0/data/scripts/dock.prm

>  <Rbt.Receptor>
def.prm

>  <SCORE>
0.124227

>  <SCORE.INTER>
-8.77185

>  <SCORE.INTER.CONST>
1

>  <SCORE.INTER.POLAR>
-0.874372

>  <SCORE.INTER.REPUL>
0

>  <SCORE.INTER.ROT>
15

>  <SCORE.INTER.VDW>
-26.199

>  <SCORE.INTER.norm>
-0.190692

>  <SCORE.INTRA>
9.55952

>  <SCORE.INTRA.DIHEDRAL>
3.74415

>  <SCORE.INTRA.DIHEDRAL.0>
17.6555

>  <SCORE.INTRA.POLAR>
-0.301408

>  <SCORE.INTRA.POLAR.0>
-0.227187

>  <SCORE.INTRA.REPUL>
0

>  <SCORE.INTRA.REPUL.0>
0

>  <SCORE.INTRA.VDW>
8.71223

>  <SCORE.INTRA.VDW.0>
-8.98636

>  <SCORE.INTRA.norm>
0.207816

>  <SCORE.RESTR>
0.150232

>  <SCORE.RESTR.CAVITY>
0.150232

>  <SCORE.RESTR.norm>
0.00326592

>  <SCORE.SYSTEM>
-0.813671

>  <SCORE.SYSTEM.CONST>
0

>  <SCORE.SYSTEM.DIHEDRAL>
0.422719

>  <SCORE.SYSTEM.POLAR>
-0.00361098

>  <SCORE.SYSTEM.VDW>
-1.01275

>  <SCORE.SYSTEM.norm>
-0.0176885

>  <SCORE.heavy>
46

>  <SCORE.norm>
0.00270059

$$$$
Lopinavir.pdb
  RxDock  02242113053D
librxdock.so/0.1.0
 50 53  0  0  0  0  0  0  0  0999 V2000
  -48.0328   -8.0040   17.4222 C   0  0  0  0  0  0
  -49.2508   -5.8727   17.9415 C   0  0  0  0  0  0
  -50.4723   -6.6985   18.2652 N   0  0  0  0  0  0
  -50.4536   -8.0830   18.1653 C   0  0  0  0  0  0
  -49.2963   -8.6847   17.7684 N   0  0  0  0  0  0
  -47.2410   -1.1762   14.7486 C   0  0  0  0  0  0
  -46.9069   -2.5333   14.5204 C   0  0  0  0  0  0
  -45.5540   -2.9475   14.4470 C   0  0  0  0  0  0
  -44.5191   -2.0056   14.6004 C   0  0  0  0  0  0
  -44.8402   -0.6494   14.8277 C   0  0  0  0  0  0
  -46.1908   -0.2358   14.9015 C   0  0  0  0  0  0
  -51.4323   -8.7638   18.4192 O   0  0  0  0  0  0
  -51.7425   -6.0185   18.6983 C   0  0  0  0  0  0
  -52.0400   -4.8332   17.7395 C   0  0  0  0  0  0
  -51.6771   -5.0961   16.4456 N   0  0  0  0  0  0
  -51.8430   -4.1559   15.3152 C   0  0  0  0  0  0
  -51.6828   -5.5647   20.2103 C   0  0  0  0  0  0
  -51.4526   -6.7294   21.1923 C   0  0  0  0  0  0
  -50.5679   -4.5152   20.4261 C   0  0  0  0  0  0
  -52.5479   -3.7851   18.1419 O   0  0  0  0  0  0
  -56.3709   -6.3035   15.4749 C   0  0  0  0  0  0
  -55.8137   -7.5824   15.2349 C   0  0  0  0  0  0
  -54.4461   -7.6992   14.8936 C   0  0  0  0  0  0
  -53.6444   -6.5393   14.7948 C   0  0  0  0  0  0
  -54.1963   -5.2512   15.0334 C   0  0  0  0  0  0
  -55.5645   -5.1445   15.3741 C   0  0  0  0  0  0
  -53.3337   -4.0259   14.9255 C   0  0  0  0  0  0
  -51.3670   -2.7345   15.6867 C   0  0  0  0  0  0
  -49.9356   -2.5179   16.2110 C   0  0  0  0  0  0
  -49.3884   -1.0677   16.1893 C   0  0  0  0  0  0
  -48.3892   -0.9329   17.2749 N   0  0  0  0  0  0
  -48.5450   -0.1164   18.3651 C   0  0  0  0  0  0
  -47.3564   -0.1267   19.3465 C   0  0  0  0  0  0
  -46.1192    0.2137   18.6941 O   0  0  0  0  0  0
  -44.9743   -0.0246   19.4784 C   0  0  0  0  0  0
  -49.9508   -2.9365   17.5546 O   0  0  0  0  0  0
  -48.6967   -0.7589   14.8285 C   0  0  0  0  0  0
  -49.5299    0.5983   18.5803 O   0  0  0  0  0  0
  -44.6337    0.8145   20.5961 C   0  0  0  0  0  0
  -43.4660    0.5212   21.3504 C   0  0  0  0  0  0
  -42.6455   -0.5773   21.0182 C   0  0  0  0  0  0
  -42.9724   -1.4069   19.9267 C   0  0  0  0  0  0
  -44.1280   -1.1446   19.1523 C   0  0  0  0  0  0
  -44.4459   -2.0436   18.0061 C   0  0  0  0  0  0
  -45.4747    2.0017   21.0017 C   0  0  0  0  0  0
  -47.9184   -6.6345   18.1018 C   0  0  0  0  0  0
  -49.3801   -9.7006   17.7289 H   0  0  0  0  0  0
  -51.2698   -6.0225   16.3194 H   0  0  0  0  0  0
  -47.5111   -1.4519   17.2710 H   0  0  0  0  0  0
  -50.5582   -2.3566   18.0003 H   0  0  0  0  0  0
  1  5  1  0  0  0
  1 46  1  0  0  0
  2  3  1  0  0  0
  2 46  1  0  0  0
  3  4  1  0  0  0
  3 13  1  0  0  0
  4  5  1  0  0  0
  4 12  2  0  0  0
  5 47  1  0  0  0
  6  7  2  0  0  0
  6 11  1  0  0  0
  6 37  1  0  0  0
  7  8  1  0  0  0
  8  9  2  0  0  0
  9 10  1  0  0  0
 10 11  2  0  0  0
 13 14  1  0  0  0
 13 17  1  0  0  0
 14 15  1  0  0  0
 14 20  2  0  0  0
 15 16  1  0  0  0
 15 48  1  0  0  0
 16 27  1  0  0  0
 16 28  1  0  0  0
 17 18  1  0  0  0
 17 19  1  0  0  0
 21 22  2  0  0  0
 21 26  1  0  0  0
 22 23  1  0  0  0
 23 24  2  0  0  0
 24 25  1  0  0  0
 25 26  2  0  0  0
 25 27  1  0  0  0
 28 29  1  0  0  0
 29 30  1  0  0  0
 29 36  1  0  0  0
 30 31  1  0  0  0
 30 37  1  0  0  0
 31 32  1  0  0  0
 31 49  1  0  0  0
 32 33  1  0  0  0
 32 38  2  0  0  0
 33 34  1  0  0  0
 34 35  1  0  0  0
 35 39  2  0  0  0
 35 43  1  0  0  0
 36 50  1  0  0  0
 39 40  1  0  0  0
 39 45  1  0  0  0
 40 41  2  0  0  0
 41 42  1  0  0  0
 42 43  2  0  0  0
 43 44  1  0  0  0
M  END
>  <CHROM.0>
-55.93666949,177.69837422,167.31696715

>  <CHROM.1>
47.00611965,78.81734650,35.47148486,-59.39398752,-72.16496910,-35.41120893
55.46524003,-32.59314910,163.36012149,152.01365114,-62.79440500,-114.84964286
-85.54992754,56.04112855,-168.64560910,-73.18559620,-49.17907352,-3.45057567
17.46216411,-2.84350559,-0.61728977,-0.75830331

>  <Name>
Lopinavir.pdb

>  <RI>
-9.60994e+08

>  <Rbt.Current_Directory>
/root/miniconda3/envs/rdock/share/rxdock-2013.1.1_148c5bd1-0/data/ligands/prepped_ligands/Lopinavir

>  <Rbt.Executable>
rbdock/0.1.0

>  <Rbt.Library>
librxdock.so/0.1.0

>  <Rbt.Parameter_File>
/root/miniconda3/envs/rdock/share/rxdock-2013.1.1_148c5bd1-0/data/scripts/dock.prm

>  <Rbt.Receptor>
def.prm

>  <SCORE>
-7.61162

>  <SCORE.INTER>
-11.9366

>  <SCORE.INTER.CONST>
1

>  <SCORE.INTER.POLAR>
0

>  <SCORE.INTER.REPUL>
0.224554

>  <SCORE.INTER.ROT>
15

>  <SCORE.INTER.VDW>
-33.4594

>  <SCORE.INTER.norm>
-0.259492

>  <SCORE.INTRA>
5.17253

>  <SCORE.INTRA.DIHEDRAL>
3.80601

>  <SCORE.INTRA.DIHEDRAL.0>
17.6555

>  <SCORE.INTRA.POLAR>
0.227187

>  <SCORE.INTRA.POLAR.0>
-0.227187

>  <SCORE.INTRA.REPUL>
0

>  <SCORE.INTRA.REPUL.0>
0

>  <SCORE.INTRA.VDW>
2.49709

>  <SCORE.INTRA.VDW.0>
-8.98636

>  <SCORE.INTRA.norm>
0.112446

>  <SCORE.RESTR>
0

>  <SCORE.RESTR.CAVITY>
0

>  <SCORE.RESTR.norm>
0

>  <SCORE.SYSTEM>
-0.847526

>  <SCORE.SYSTEM.CONST>
0

>  <SCORE.SYSTEM.DIHEDRAL>
0.456021

>  <SCORE.SYSTEM.VDW>
-1.07554

>  <SCORE.SYSTEM.norm>
-0.0184245

>  <SCORE.heavy>
46

>  <SCORE.norm>
-0.16547

$$$$
Lopinavir.pdb
  RxDock  02242113053D
librxdock.so/0.1.0
 50 53  0  0  0  0  0  0  0  0999 V2000
  -45.5924    0.7514   20.8951 C   0  0  0  0  0  0
  -46.9108   -0.4709   19.1449 C   0  0  0  0  0  0
  -45.8961   -0.0175   18.1234 N   0  0  0  0  0  0
  -44.8109    0.7690   18.4853 C   0  0  0  0  0  0
  -44.6797    1.1222   19.7956 N   0  0  0  0  0  0
  -49.4725   -3.6236   18.0665 C   0  0  0  0  0  0
  -50.0330   -4.3199   19.1647 C   0  0  0  0  0  0
  -49.6532   -5.6545   19.4510 C   0  0  0  0  0  0
  -48.7072   -6.3078   18.6386 C   0  0  0  0  0  0
  -48.1420   -5.6236   17.5402 C   0  0  0  0  0  0
  -48.5207   -4.2911   17.2546 C   0  0  0  0  0  0
  -43.9851    1.1466   17.6721 O   0  0  0  0  0  0
  -46.0577   -0.4132   16.6809 C   0  0  0  0  0  0
  -47.5130   -0.1132   16.2288 C   0  0  0  0  0  0
  -47.6534   -0.1096   14.8667 N   0  0  0  0  0  0
  -48.9229    0.1433   14.1499 C   0  0  0  0  0  0
  -45.6528   -1.9200   16.4335 C   0  0  0  0  0  0
  -45.1954   -2.2039   14.9898 C   0  0  0  0  0  0
  -44.5240   -2.3519   17.3982 C   0  0  0  0  0  0
  -48.4150    0.0952   17.0420 O   0  0  0  0  0  0
  -48.8446    4.1070   11.3015 C   0  0  0  0  0  0
  -50.2432    4.3217   11.2636 C   0  0  0  0  0  0
  -51.1221    3.2980   11.6877 C   0  0  0  0  0  0
  -50.5990    2.0677   12.1470 C   0  0  0  0  0  0
  -49.1959    1.8437   12.1874 C   0  0  0  0  0  0
  -48.3252    2.8732   11.7614 C   0  0  0  0  0  0
  -48.6523    0.5318   12.6779 C   0  0  0  0  0  0
  -49.8106   -1.1197   14.1083 C   0  0  0  0  0  0
  -49.7089   -2.1657   15.2335 C   0  0  0  0  0  0
  -50.6607   -1.9933   16.4450 C   0  0  0  0  0  0
  -51.7257   -3.0186   16.3474 N   0  0  0  0  0  0
  -52.5754   -3.1441   15.2788 C   0  0  0  0  0  0
  -53.6179   -4.2708   15.4200 C   0  0  0  0  0  0
  -53.2894   -5.4107   14.6046 O   0  0  0  0  0  0
  -53.7468   -6.6368   15.1243 C   0  0  0  0  0  0
  -50.0151   -3.4030   14.6370 O   0  0  0  0  0  0
  -49.8914   -2.1937   17.7843 C   0  0  0  0  0  0
  -52.5569   -2.4294   14.2709 O   0  0  0  0  0  0
  -53.1709   -7.2206   16.3062 C   0  0  0  0  0  0
  -53.6774   -8.4595   16.7826 C   0  0  0  0  0  0
  -54.7326   -9.1161   16.1149 C   0  0  0  0  0  0
  -55.3053   -8.5507   14.9579 C   0  0  0  0  0  0
  -54.8258   -7.3177   14.4540 C   0  0  0  0  0  0
  -55.4559   -6.7465   13.2295 C   0  0  0  0  0  0
  -52.0426   -6.5632   17.0651 C   0  0  0  0  0  0
  -46.3631   -0.5374   20.5860 C   0  0  0  0  0  0
  -43.8525    1.6952   19.9627 H   0  0  0  0  0  0
  -46.7839   -0.3016   14.3695 H   0  0  0  0  0  0
  -51.8889   -3.7028   17.0861 H   0  0  0  0  0  0
  -49.8021   -4.0641   15.2861 H   0  0  0  0  0  0
  1  5  1  0  0  0
  1 46  1  0  0  0
  2  3  1  0  0  0
  2 46  1  0  0  0
  3  4  1  0  0  0
  3 13  1  0  0  0
  4  5  1  0  0  0
  4 12  2  0  0  0
  5 47  1  0  0  0
  6  7  2  0  0  0
  6 11  1  0  0  0
  6 37  1  0  0  0
  7  8  1  0  0  0
  8  9  2  0  0  0
  9 10  1  0  0  0
 10 11  2  0  0  0
 13 14  1  0  0  0
 13 17  1  0  0  0
 14 15  1  0  0  0
 14 20  2  0  0  0
 15 16  1  0  0  0
 15 48  1  0  0  0
 16 27  1  0  0  0
 16 28  1  0  0  0
 17 18  1  0  0  0
 17 19  1  0  0  0
 21 22  2  0  0  0
 21 26  1  0  0  0
 22 23  1  0  0  0
 23 24  2  0  0  0
 24 25  1  0  0  0
 25 26  2  0  0  0
 25 27  1  0  0  0
 28 29  1  0  0  0
 29 30  1  0  0  0
 29 36  1  0  0  0
 30 31  1  0  0  0
 30 37  1  0  0  0
 31 32  1  0  0  0
 31 49  1  0  0  0
 32 33  1  0  0  0
 32 38  2  0  0  0
 33 34  1  0  0  0
 34 35  1  0  0  0
 35 39  2  0  0  0
 35 43  1  0  0  0
 36 50  1  0  0  0
 39 40  1  0  0  0
 39 45  1  0  0  0
 40 41  2  0  0  0
 41 42  1  0  0  0
 42 43  2  0  0  0
 43 44  1  0  0  0
M  END
>  <CHROM.0>
-61.94516060,-62.87874849,171.10722031

>  <CHROM.1>
48.89032549,-114.47904478,163.93061171,-154.22292282,161.31825266,-123.17279390
28.46786631,-63.45094444,91.06707118,105.92786795,170.10453357,-58.23676485
-70.96467634,-104.97041637,150.57618597,-69.92067137,-49.52767699,-2.25562658
15.97099966,-0.57778631,0.65755563,2.45349013

>  <Name>
Lopinavir.pdb

>  <RI>
-9.60994e+08

>  <Rbt.Current_Directory>
/root/miniconda3/envs/rdock/share/rxdock-2013.1.1_148c5bd1-0/data/ligands/prepped_ligands/Lopinavir

>  <Rbt.Executable>
rbdock/0.1.0

>  <Rbt.Library>
librxdock.so/0.1.0

>  <Rbt.Parameter_File>
/root/miniconda3/envs/rdock/share/rxdock-2013.1.1_148c5bd1-0/data/scripts/dock.prm

>  <Rbt.Receptor>
def.prm

>  <SCORE>
-0.516547

>  <SCORE.INTER>
-13.2795

>  <SCORE.INTER.CONST>
1

>  <SCORE.INTER.POLAR>
0

>  <SCORE.INTER.REPUL>
0

>  <SCORE.INTER.ROT>
15

>  <SCORE.INTER.VDW>
-33.6795

>  <SCORE.INTER.norm>
-0.288686

>  <SCORE.INTRA>
13.7364

>  <SCORE.INTRA.DIHEDRAL>
17.5611

>  <SCORE.INTRA.DIHEDRAL.0>
17.6555

>  <SCORE.INTRA.POLAR>
0.227187

>  <SCORE.INTRA.POLAR.0>
-0.227187

>  <SCORE.INTRA.REPUL>
0

>  <SCORE.INTRA.REPUL.0>
0

>  <SCORE.INTRA.VDW>
4.18338

>  <SCORE.INTRA.VDW.0>
-8.98636

>  <SCORE.INTRA.norm>
0.298616

>  <SCORE.RESTR>
0

>  <SCORE.RESTR.CAVITY>
0

>  <SCORE.RESTR.norm>
0

>  <SCORE.SYSTEM>
-0.973363

>  <SCORE.SYSTEM.CONST>
0

>  <SCORE.SYSTEM.DIHEDRAL>
0.250389

>  <SCORE.SYSTEM.VDW>
-1.09856

>  <SCORE.SYSTEM.norm>
-0.0211601

>  <SCORE.heavy>
46

>  <SCORE.norm>
-0.0112293

$$$$
Lopinavir.pdb
  RxDock  02242113053D
librxdock.so/0.1.0
 50 53  0  0  0  0  0  0  0  0999 V2000
  -44.4533   -2.1156   22.7972 C   0  0  0  0  0  0
  -43.1495   -1.1706   20.8729 C   0  0  0  0  0  0
  -44.1508   -0.0432   20.8023 N   0  0  0  0  0  0
  -45.2251    0.0227   21.6790 C   0  0  0  0  0  0
  -45.3539   -0.9601   22.6152 N   0  0  0  0  0  0
  -49.4322   -2.0411   14.7461 C   0  0  0  0  0  0
  -50.0474   -2.1218   16.0190 C   0  0  0  0  0  0
  -51.4430   -2.3333   16.1409 C   0  0  0  0  0  0
  -52.2393   -2.4652   14.9876 C   0  0  0  0  0  0
  -51.6370   -2.3856   13.7128 C   0  0  0  0  0  0
  -50.2437   -2.1750   13.5910 C   0  0  0  0  0  0
  -46.0445    0.9241   21.6325 O   0  0  0  0  0  0
  -43.9960    1.0315   19.7608 C   0  0  0  0  0  0
  -44.9281    0.7162   18.5590 C   0  0  0  0  0  0
  -45.2995   -0.6008   18.5093 N   0  0  0  0  0  0
  -46.1831   -1.1900   17.4790 C   0  0  0  0  0  0
  -42.4901    1.2122   19.3189 C   0  0  0  0  0  0
  -42.2717    2.3902   18.3500 C   0  0  0  0  0  0
  -41.5761    1.4152   20.5497 C   0  0  0  0  0  0
  -45.2713    1.5876   17.7582 O   0  0  0  0  0  0
  -49.0755    2.3135   19.4823 C   0  0  0  0  0  0
  -49.4043    1.5215   20.6083 C   0  0  0  0  0  0
  -49.0744    0.1462   20.6194 C   0  0  0  0  0  0
  -48.4184   -0.4286   19.5071 C   0  0  0  0  0  0
  -48.0853    0.3596   18.3719 C   0  0  0  0  0  0
  -48.4192    1.7336   18.3702 C   0  0  0  0  0  0
  -47.3879   -0.2630   17.1960 C   0  0  0  0  0  0
  -45.4455   -1.3647   16.1335 C   0  0  0  0  0  0
  -45.6205   -2.6640   15.3263 C   0  0  0  0  0  0
  -47.0688   -3.0749   14.9563 C   0  0  0  0  0  0
  -47.6591   -3.7859   16.1143 N   0  0  0  0  0  0
  -48.7230   -4.6461   16.0265 C   0  0  0  0  0  0
  -49.1743   -5.2443   17.3736 C   0  0  0  0  0  0
  -50.5691   -5.6001   17.3621 O   0  0  0  0  0  0
  -50.9642   -6.4015   18.4504 C   0  0  0  0  0  0
  -44.9241   -2.4638   14.1198 O   0  0  0  0  0  0
  -47.9356   -1.8197   14.6421 C   0  0  0  0  0  0
  -49.3140   -4.9380   14.9812 O   0  0  0  0  0  0
  -50.5595   -7.7772   18.5643 C   0  0  0  0  0  0
  -50.9893   -8.5336   19.6875 C   0  0  0  0  0  0
  -51.8002   -7.9528   20.6852 C   0  0  0  0  0  0
  -52.1994   -6.6049   20.5840 C   0  0  0  0  0  0
  -51.7906   -5.8209   19.4785 C   0  0  0  0  0  0
  -52.2288   -4.3978   19.4039 C   0  0  0  0  0  0
  -49.6897   -8.4524   17.5304 C   0  0  0  0  0  0
  -43.0445   -1.8296   22.2643 C   0  0  0  0  0  0
  -46.1691   -0.8230   23.2129 H   0  0  0  0  0  0
  -44.9051   -1.1616   19.2643 H   0  0  0  0  0  0
  -47.2983   -3.6723   17.0617 H   0  0  0  0  0  0
  -45.3919   -1.7747   13.6612 H   0  0  0  0  0  0
  1  5  1  0  0  0
  1 46  1  0  0  0
  2  3  1  0  0  0
  2 46  1  0  0  0
  3  4  1  0  0  0
  3 13  1  0  0  0
  4  5  1  0  0  0
  4 12  2  0  0  0
  5 47  1  0  0  0
  6  7  2  0  0  0
  6 11  1  0  0  0
  6 37  1  0  0  0
  7  8  1  0  0  0
  8  9  2  0  0  0
  9 10  1  0  0  0
 10 11  2  0  0  0
 13 14  1  0  0  0
 13 17  1  0  0  0
 14 15  1  0  0  0
 14 20  2  0  0  0
 15 16  1  0  0  0
 15 48  1  0  0  0
 16 27  1  0  0  0
 16 28  1  0  0  0
 17 18  1  0  0  0
 17 19  1  0  0  0
 21 22  2  0  0  0
 21 26  1  0  0  0
 22 23  1  0  0  0
 23 24  2  0  0  0
 24 25  1  0  0  0
 25 26  2  0  0  0
 25 27  1  0  0  0
 28 29  1  0  0  0
 29 30  1  0  0  0
 29 36  1  0  0  0
 30 31  1  0  0  0
 30 37  1  0  0  0
 31 32  1  0  0  0
 31 49  1  0  0  0
 32 33  1  0  0  0
 32 38  2  0  0  0
 33 34  1  0  0  0
 34 35  1  0  0  0
 35 39  2  0  0  0
 35 43  1  0  0  0
 36 50  1  0  0  0
 39 40  1  0  0  0
 39 45  1  0  0  0
 40 41  2  0  0  0
 41 42  1  0  0  0
 42 43  2  0  0  0
 43 44  1  0  0  0
M  END
>  <CHROM.0>
57.59484996,61.67342565,-59.53630965

>  <CHROM.1>
98.35178835,75.74808985,-20.34384817,-174.68482945,-43.14843322,-43.68350620
136.63069203,-45.91108690,55.72281769,-83.07950425,-65.93122697,-158.35778453
-159.59719795,153.08967818,167.25314355,-71.16201125,-47.63046238,-2.11525330
18.21076923,0.02122124,0.79479474,1.94278208

>  <Name>
Lopinavir.pdb

>  <RI>
-9.60994e+08

>  <Rbt.Current_Directory>
/root/miniconda3/envs/rdock/share/rxdock-2013.1.1_148c5bd1-0/data/ligands/prepped_ligands/Lopinavir

>  <Rbt.Executable>
rbdock/0.1.0

>  <Rbt.Library>
librxdock.so/0.1.0

>  <Rbt.Parameter_File>
/root/miniconda3/envs/rdock/share/rxdock-2013.1.1_148c5bd1-0/data/scripts/dock.prm

>  <Rbt.Receptor>
def.prm

>  <SCORE>
3.90978

>  <SCORE.INTER>
-6.9136

>  <SCORE.INTER.CONST>
1

>  <SCORE.INTER.POLAR>
-0.295537

>  <SCORE.INTER.REPUL>
0

>  <SCORE.INTER.ROT>
15

>  <SCORE.INTER.VDW>
-26.3088

>  <SCORE.INTER.norm>
-0.150296

>  <SCORE.INTRA>
10.6447

>  <SCORE.INTRA.DIHEDRAL>
6.57551

>  <SCORE.INTRA.DIHEDRAL.0>
17.6555

>  <SCORE.INTRA.POLAR>
0.227187

>  <SCORE.INTRA.POLAR.0>
-0.227187

>  <SCORE.INTRA.REPUL>
0

>  <SCORE.INTRA.REPUL.0>
0

>  <SCORE.INTRA.VDW>
6.58447

>  <SCORE.INTRA.VDW.0>
-8.98636

>  <SCORE.INTRA.norm>
0.231406

>  <SCORE.RESTR>
1.1739

>  <SCORE.RESTR.CAVITY>
1.1739

>  <SCORE.RESTR.norm>
0.0255195

>  <SCORE.SYSTEM>
-0.995184

>  <SCORE.SYSTEM.CONST>
0

>  <SCORE.SYSTEM.DIHEDRAL>
0.0301905

>  <SCORE.SYSTEM.POLAR>
-0.00195994

>  <SCORE.SYSTEM.VDW>
-1.00362

>  <SCORE.SYSTEM.norm>
-0.0216344

>  <SCORE.heavy>
46

>  <SCORE.norm>
0.0849952

$$$$
Lopinavir.pdb
  RxDock  02242113053D
librxdock.so/0.1.0
 50 53  0  0  0  0  0  0  0  0999 V2000
  -50.2599   -8.9732   17.9763 C   0  0  0  0  0  0
  -50.3747   -7.3968   19.9250 C   0  0  0  0  0  0
  -51.6412   -6.8256   19.3349 N   0  0  0  0  0  0
  -52.1632   -7.3094   18.1430 C   0  0  0  0  0  0
  -51.5024   -8.3231   17.5147 N   0  0  0  0  0  0
  -47.3859   -2.5734   15.8329 C   0  0  0  0  0  0
  -46.2158   -2.7993   15.0680 C   0  0  0  0  0  0
  -45.3125   -1.7437   14.7904 C   0  0  0  0  0  0
  -45.5721   -0.4479   15.2754 C   0  0  0  0  0  0
  -46.7363   -0.2106   16.0387 C   0  0  0  0  0  0
  -47.6378   -1.2644   16.3164 C   0  0  0  0  0  0
  -53.1825   -6.8564   17.6513 O   0  0  0  0  0  0
  -52.3561   -5.7047   20.0391 C   0  0  0  0  0  0
  -51.5703   -4.3823   19.8237 C   0  0  0  0  0  0
  -52.1650   -3.5575   18.9066 N   0  0  0  0  0  0
  -51.6452   -2.2327   18.5012 C   0  0  0  0  0  0
  -52.5864   -6.0214   21.5696 C   0  0  0  0  0  0
  -51.2829   -6.0677   22.3900 C   0  0  0  0  0  0
  -53.5313   -4.9789   22.2111 C   0  0  0  0  0  0
  -50.5264   -4.1415   20.4324 O   0  0  0  0  0  0
  -50.1664    1.8862   18.1453 C   0  0  0  0  0  0
  -49.1278    2.3540   18.9854 C   0  0  0  0  0  0
  -48.6693    1.5452   20.0512 C   0  0  0  0  0  0
  -49.2500    0.2753   20.2706 C   0  0  0  0  0  0
  -50.2941   -0.2016   19.4320 C   0  0  0  0  0  0
  -50.7457    0.6142   18.3690 C   0  0  0  0  0  0
  -50.9031   -1.5532   19.6754 C   0  0  0  0  0  0
  -50.6197   -2.3543   17.3530 C   0  0  0  0  0  0
  -50.8639   -3.3564   16.2098 C   0  0  0  0  0  0
  -49.6564   -3.6948   15.2985 C   0  0  0  0  0  0
  -49.5518   -2.6448   14.2586 N   0  0  0  0  0  0
  -50.5630   -1.7753   13.9404 C   0  0  0  0  0  0
  -50.2242   -0.7887   12.8056 C   0  0  0  0  0  0
  -50.4849    0.5752   13.1852 O   0  0  0  0  0  0
  -49.7918    1.5267   12.4124 C   0  0  0  0  0  0
  -51.2667   -4.5546   16.8284 O   0  0  0  0  0  0
  -48.3342   -3.7211   16.1211 C   0  0  0  0  0  0
  -51.6752   -1.7545   14.4786 O   0  0  0  0  0  0
  -50.4497    2.6839   11.8670 C   0  0  0  0  0  0
  -49.6954    3.6092   11.0967 C   0  0  0  0  0  0
  -48.3185    3.4071   10.8655 C   0  0  0  0  0  0
  -47.6644    2.2780   11.3980 C   0  0  0  0  0  0
  -48.3842    1.3346   12.1700 C   0  0  0  0  0  0
  -47.6609    0.1528   12.7204 C   0  0  0  0  0  0
  -51.9197    2.9553   12.0835 C   0  0  0  0  0  0
  -50.0817   -8.8493   19.4940 C   0  0  0  0  0  0
  -51.9635   -8.6115   16.6517 H   0  0  0  0  0  0
  -53.0232   -3.9423   18.5123 H   0  0  0  0  0  0
  -48.7027   -2.5076   13.7101 H   0  0  0  0  0  0
  -52.2086   -4.4864   16.9381 H   0  0  0  0  0  0
  1  5  1  0  0  0
  1 46  1  0  0  0
  2  3  1  0  0  0
  2 46  1  0  0  0
  3  4  1  0  0  0
  3 13  1  0  0  0
  4  5  1  0  0  0
  4 12  2  0  0  0
  5 47  1  0  0  0
  6  7  2  0  0  0
  6 11  1  0  0  0
  6 37  1  0  0  0
  7  8  1  0  0  0
  8  9  2  0  0  0
  9 10  1  0  0  0
 10 11  2  0  0  0
 13 14  1  0  0  0
 13 17  1  0  0  0
 14 15  1  0  0  0
 14 20  2  0  0  0
 15 16  1  0  0  0
 15 48  1  0  0  0
 16 27  1  0  0  0
 16 28  1  0  0  0
 17 18  1  0  0  0
 17 19  1  0  0  0
 21 22  2  0  0  0
 21 26  1  0  0  0
 22 23  1  0  0  0
 23 24  2  0  0  0
 24 25  1  0  0  0
 25 26  2  0  0  0
 25 27  1  0  0  0
 28 29  1  0  0  0
 29 30  1  0  0  0
 29 36  1  0  0  0
 30 31  1  0  0  0
 30 37  1  0  0  0
 31 32  1  0  0  0
 31 49  1  0  0  0
 32 33  1  0  0  0
 32 38  2  0  0  0
 33 34  1  0  0  0
 34 35  1  0  0  0
 35 39  2  0  0  0
 35 43  1  0  0  0
 36 50  1  0  0  0
 39 40  1  0  0  0
 39 45  1  0  0  0
 40 41  2  0  0  0
 41 42  1  0  0  0
 42 43  2  0  0  0
 43 44  1  0  0  0
M  END
>  <CHROM.0>
-25.94610031,-97.48631850,-178.97726844

>  <CHROM.1>
75.02058019,-105.50895897,104.26604024,67.61714583,-31.63655457,179.25760820
40.06895962,-158.89390000,-164.73066678,-83.63885012,86.91659015,-17.12434203
-109.63756579,-127.89676311,159.32368326,133.13099702,-50.06553866,-2.31534112
16.71423284,-2.78205938,1.30074323,0.48523685

>  <Name>
Lopinavir.pdb

>  <RI>
-9.60994e+08

>  <Rbt.Current_Directory>
/root/miniconda3/envs/rdock/share/rxdock-2013.1.1_148c5bd1-0/data/ligands/prepped_ligands/Lopinavir

>  <Rbt.Executable>
rbdock/0.1.0

>  <Rbt.Library>
librxdock.so/0.1.0

>  <Rbt.Parameter_File>
/root/miniconda3/envs/rdock/share/rxdock-2013.1.1_148c5bd1-0/data/scripts/dock.prm

>  <Rbt.Receptor>
def.prm

>  <SCORE>
31.8647

>  <SCORE.INTER>
5.37635

>  <SCORE.INTER.CONST>
1

>  <SCORE.INTER.POLAR>
-0.452831

>  <SCORE.INTER.REPUL>
0.0351753

>  <SCORE.INTER.ROT>
15

>  <SCORE.INTER.VDW>
-13.6599

>  <SCORE.INTER.norm>
0.116877

>  <SCORE.INTRA>
22.3577

>  <SCORE.INTRA.DIHEDRAL>
9.06209

>  <SCORE.INTRA.DIHEDRAL.0>
17.6555

>  <SCORE.INTRA.POLAR>
0.227187

>  <SCORE.INTRA.POLAR.0>
-0.227187

>  <SCORE.INTRA.REPUL>
0

>  <SCORE.INTRA.REPUL.0>
0

>  <SCORE.INTRA.VDW>
17.0542

>  <SCORE.INTRA.VDW.0>
-8.98636

>  <SCORE.INTRA.norm>
0.486037

>  <SCORE.RESTR>
1.457

>  <SCORE.RESTR.CAVITY>
1.457

>  <SCORE.RESTR.norm>
0.031674

>  <SCORE.SYSTEM>
2.67358

>  <SCORE.SYSTEM.CONST>
0

>  <SCORE.SYSTEM.DIHEDRAL>
7.14253

>  <SCORE.SYSTEM.POLAR>
-0.00446125

>  <SCORE.SYSTEM.VDW>
-0.88251

>  <SCORE.SYSTEM.norm>
0.0581214

>  <SCORE.heavy>
46

>  <SCORE.norm>
0.69271

$$$$
Lopinavir.pdb
  RxDock  02242113053D
librxdock.so/0.1.0
 50 53  0  0  0  0  0  0  0  0999 V2000
  -46.3207   -7.7094   18.6872 C   0  0  0  0  0  0
  -48.2773   -7.3722   20.2214 C   0  0  0  0  0  0
  -49.1136   -8.1892   19.2665 N   0  0  0  0  0  0
  -48.5698   -8.7195   18.1045 C   0  0  0  0  0  0
  -47.2517   -8.4867   17.8454 N   0  0  0  0  0  0
  -50.5161   -1.0391   13.4655 C   0  0  0  0  0  0
  -50.6370    0.3373   13.1555 C   0  0  0  0  0  0
  -49.5052    1.1001   12.7758 C   0  0  0  0  0  0
  -48.2375    0.4923   12.7035 C   0  0  0  0  0  0
  -48.1046   -0.8795   13.0111 C   0  0  0  0  0  0
  -49.2346   -1.6413   13.3896 C   0  0  0  0  0  0
  -49.2324   -9.3778   17.3213 O   0  0  0  0  0  0
  -50.5677   -8.4337   19.5656 C   0  0  0  0  0  0
  -51.4255   -7.9401   18.3686 C   0  0  0  0  0  0
  -50.9540   -6.7750   17.8252 N   0  0  0  0  0  0
  -51.5649   -6.0724   16.6751 C   0  0  0  0  0  0
  -51.0085   -7.7722   20.9308 C   0  0  0  0  0  0
  -52.4894   -7.3477   20.9574 C   0  0  0  0  0  0
  -50.7537   -8.7331   22.1153 C   0  0  0  0  0  0
  -52.4177   -8.5602   17.9822 O   0  0  0  0  0  0
  -55.3105   -8.0623   15.3559 C   0  0  0  0  0  0
  -56.4054   -7.2393   14.9990 C   0  0  0  0  0  0
  -56.3772   -5.8599   15.3102 C   0  0  0  0  0  0
  -55.2566   -5.3117   15.9748 C   0  0  0  0  0  0
  -54.1533   -6.1314   16.3375 C   0  0  0  0  0  0
  -54.1907   -7.5093   16.0220 C   0  0  0  0  0  0
  -52.9679   -5.5368   17.0434 C   0  0  0  0  0  0
  -50.7293   -4.8441   16.2535 C   0  0  0  0  0  0
  -51.1250   -4.0409   15.0010 C   0  0  0  0  0  0
  -51.6187   -2.5880   15.2217 C   0  0  0  0  0  0
  -50.6270   -1.8850   16.0686 N   0  0  0  0  0  0
  -50.8710   -1.4674   17.3514 C   0  0  0  0  0  0
  -49.6913   -0.7349   18.0205 C   0  0  0  0  0  0
  -48.9759    0.0947   17.0866 O   0  0  0  0  0  0
  -47.7625    0.6046   17.5870 C   0  0  0  0  0  0
  -49.9650   -3.9698   14.2074 O   0  0  0  0  0  0
  -51.7437   -1.8353   13.8640 C   0  0  0  0  0  0
  -51.9354   -1.6276   17.9584 O   0  0  0  0  0  0
  -46.4895    0.1093   17.1361 C   0  0  0  0  0  0
  -45.2998    0.6659   17.6777 C   0  0  0  0  0  0
  -45.3543    1.6929   18.6434 C   0  0  0  0  0  0
  -46.5967    2.1869   19.0893 C   0  0  0  0  0  0
  -47.8028    1.6557   18.5722 C   0  0  0  0  0  0
  -49.0996    2.2029   19.0638 C   0  0  0  0  0  0
  -46.3678   -0.9855   16.1027 C   0  0  0  0  0  0
  -46.7669   -7.6808   20.1537 C   0  0  0  0  0  0
  -46.9447   -8.9184   16.9737 H   0  0  0  0  0  0
  -50.1204   -6.4185   18.2923 H   0  0  0  0  0  0
  -49.6871   -1.6684   15.7366 H   0  0  0  0  0  0
  -49.8274   -4.8477   13.8693 H   0  0  0  0  0  0
  1  5  1  0  0  0
  1 46  1  0  0  0
  2  3  1  0  0  0
  2 46  1  0  0  0
  3  4  1  0  0  0
  3 13  1  0  0  0
  4  5  1  0  0  0
  4 12  2  0  0  0
  5 47  1  0  0  0
  6  7  2  0  0  0
  6 11  1  0  0  0
  6 37  1  0  0  0
  7  8  1  0  0  0
  8  9  2  0  0  0
  9 10  1  0  0  0
 10 11  2  0  0  0
 13 14  1  0  0  0
 13 17  1  0  0  0
 14 15  1  0  0  0
 14 20  2  0  0  0
 15 16  1  0  0  0
 15 48  1  0  0  0
 16 27  1  0  0  0
 16 28  1  0  0  0
 17 18  1  0  0  0
 17 19  1  0  0  0
 21 22  2  0  0  0
 21 26  1  0  0  0
 22 23  1  0  0  0
 23 24  2  0  0  0
 24 25  1  0  0  0
 25 26  2  0  0  0
 25 27  1  0  0  0
 28 29  1  0  0  0
 29 30  1  0  0  0
 29 36  1  0  0  0
 30 31  1  0  0  0
 30 37  1  0  0  0
 31 32  1  0  0  0
 31 49  1  0  0  0
 32 33  1  0  0  0
 32 38  2  0  0  0
 33 34  1  0  0  0
 34 35  1  0  0  0
 35 39  2  0  0  0
 35 43  1  0  0  0
 36 50  1  0  0  0
 39 40  1  0  0  0
 39 45  1  0  0  0
 40 41  2  0  0  0
 41 42  1  0  0  0
 42 43  2  0  0  0
 43 44  1  0  0  0
M  END
>  <CHROM.0>
62.53396764,63.26923642,-41.57081955

>  <CHROM.1>
123.97834662,-125.66352613,-39.00554851,150.25841212,65.87166719,-114.10391276
174.85664121,-142.74011539,113.48254466,51.02961609,70.80771079,-112.41621319
-93.28936685,36.99018318,-169.77468470,107.27888527,-50.19749255,-4.00599441
17.00567173,-2.03716295,-0.57958172,-0.50451479

>  <Name>
Lopinavir.pdb

>  <RI>
-9.60994e+08

>  <Rbt.Current_Directory>
/root/miniconda3/envs/rdock/share/rxdock-2013.1.1_148c5bd1-0/data/ligands/prepped_ligands/Lopinavir

>  <Rbt.Executable>
rbdock/0.1.0

>  <Rbt.Library>
librxdock.so/0.1.0

>  <Rbt.Parameter_File>
/root/miniconda3/envs/rdock/share/rxdock-2013.1.1_148c5bd1-0/data/scripts/dock.prm

>  <Rbt.Receptor>
def.prm

>  <SCORE>
-2.81425

>  <SCORE.INTER>
-17.6279

>  <SCORE.INTER.CONST>
1

>  <SCORE.INTER.POLAR>
-0.910362

>  <SCORE.INTER.REPUL>
0

>  <SCORE.INTER.ROT>
15

>  <SCORE.INTER.VDW>
-34.9327

>  <SCORE.INTER.norm>
-0.383216

>  <SCORE.INTRA>
13.7626

>  <SCORE.INTRA.DIHEDRAL>
13.4534

>  <SCORE.INTRA.DIHEDRAL.0>
17.6555

>  <SCORE.INTRA.POLAR>
0.184015

>  <SCORE.INTRA.POLAR.0>
-0.227187

>  <SCORE.INTRA.REPUL>
0

>  <SCORE.INTRA.REPUL.0>
0

>  <SCORE.INTRA.VDW>
6.41029

>  <SCORE.INTRA.VDW.0>
-8.98636

>  <SCORE.INTRA.norm>
0.299188

>  <SCORE.RESTR>
1.53988

>  <SCORE.RESTR.CAVITY>
1.53988

>  <SCORE.RESTR.norm>
0.0334757

>  <SCORE.SYSTEM>
-0.488812

>  <SCORE.SYSTEM.CONST>
0

>  <SCORE.SYSTEM.DIHEDRAL>
0.828889

>  <SCORE.SYSTEM.POLAR>
-0.0198146

>  <SCORE.SYSTEM.VDW>
-0.835887

>  <SCORE.SYSTEM.norm>
-0.0106263

>  <SCORE.heavy>
46

>  <SCORE.norm>
-0.0611793

$$$$
Lopinavir.pdb
  RxDock  02242113063D
librxdock.so/0.1.0
 50 53  0  0  0  0  0  0  0  0999 V2000
  -46.8278   -7.5888   18.6042 C   0  0  0  0  0  0
  -49.1913   -8.1339   19.2465 C   0  0  0  0  0  0
  -49.5996   -6.7731   18.7367 N   0  0  0  0  0  0
  -48.6675   -5.8940   18.2022 C   0  0  0  0  0  0
  -47.3650   -6.2928   18.1446 N   0  0  0  0  0  0
  -49.6087   -0.1473   14.3116 C   0  0  0  0  0  0
  -48.2337   -0.4112   14.0992 C   0  0  0  0  0  0
  -47.5616    0.0998   12.9615 C   0  0  0  0  0  0
  -48.2605    0.8809   12.0217 C   0  0  0  0  0  0
  -49.6322    1.1500   12.2226 C   0  0  0  0  0  0
  -50.3031    0.6403   13.3587 C   0  0  0  0  0  0
  -48.9803   -4.7903   17.7900 O   0  0  0  0  0  0
  -51.0406   -6.3471   18.8110 C   0  0  0  0  0  0
  -51.6771   -6.4492   17.3979 C   0  0  0  0  0  0
  -51.2237   -5.4807   16.5426 N   0  0  0  0  0  0
  -51.6508   -5.3318   15.1338 C   0  0  0  0  0  0
  -51.1979   -4.9045   19.4354 C   0  0  0  0  0  0
  -52.6474   -4.3823   19.4173 C   0  0  0  0  0  0
  -50.6864   -4.8777   20.8944 C   0  0  0  0  0  0
  -52.4996   -7.3231   17.1185 O   0  0  0  0  0  0
  -55.4542   -7.5366   14.6626 C   0  0  0  0  0  0
  -56.6308   -7.0045   15.2424 C   0  0  0  0  0  0
  -56.6250   -5.6880   15.7590 C   0  0  0  0  0  0
  -55.4455   -4.9118   15.6929 C   0  0  0  0  0  0
  -54.2595   -5.4389   15.1131 C   0  0  0  0  0  0
  -54.2751   -6.7561   14.5992 C   0  0  0  0  0  0
  -53.0123   -4.6038   15.0486 C   0  0  0  0  0  0
  -50.6506   -4.4756   14.3267 C   0  0  0  0  0  0
  -50.7374   -2.9394   14.3817 C   0  0  0  0  0  0
  -50.2426   -2.2510   15.6795 C   0  0  0  0  0  0
  -48.8361   -2.6549   15.9112 N   0  0  0  0  0  0
  -48.0273   -2.1047   16.8719 C   0  0  0  0  0  0
  -46.5943   -2.6720   16.9025 C   0  0  0  0  0  0
  -45.9745   -2.4940   18.1895 O   0  0  0  0  0  0
  -45.4484   -1.2045   18.3978 C   0  0  0  0  0  0
  -49.9299   -2.4708   13.3286 O   0  0  0  0  0  0
  -50.3040   -0.7011   15.5402 C   0  0  0  0  0  0
  -48.3671   -1.2162   17.6606 O   0  0  0  0  0  0
  -44.3565   -0.6958   17.6115 C   0  0  0  0  0  0
  -43.8711    0.6145   17.8685 C   0  0  0  0  0  0
  -44.4464    1.4158   18.8771 C   0  0  0  0  0  0
  -45.5184    0.9273   19.6507 C   0  0  0  0  0  0
  -46.0277   -0.3738   19.4231 C   0  0  0  0  0  0
  -47.1641   -0.8583   20.2579 C   0  0  0  0  0  0
  -43.7028   -1.5050   16.5165 C   0  0  0  0  0  0
  -47.9011   -8.6836   18.6024 C   0  0  0  0  0  0
  -46.7588   -5.5823   17.7343 H   0  0  0  0  0  0
  -50.5456   -4.8492   16.9688 H   0  0  0  0  0  0
  -48.3820   -3.3807   15.3567 H   0  0  0  0  0  0
  -49.0603   -2.8176   13.4940 H   0  0  0  0  0  0
  1  5  1  0  0  0
  1 46  1  0  0  0
  2  3  1  0  0  0
  2 46  1  0  0  0
  3  4  1  0  0  0
  3 13  1  0  0  0
  4  5  1  0  0  0
  4 12  2  0  0  0
  5 47  1  0  0  0
  6  7  2  0  0  0
  6 11  1  0  0  0
  6 37  1  0  0  0
  7  8  1  0  0  0
  8  9  2  0  0  0
  9 10  1  0  0  0
 10 11  2  0  0  0
 13 14  1  0  0  0
 13 17  1  0  0  0
 14 15  1  0  0  0
 14 20  2  0  0  0
 15 16  1  0  0  0
 15 48  1  0  0  0
 16 27  1  0  0  0
 16 28  1  0  0  0
 17 18  1  0  0  0
 17 19  1  0  0  0
 21 22  2  0  0  0
 21 26  1  0  0  0
 22 23  1  0  0  0
 23 24  2  0  0  0
 24 25  1  0  0  0
 25 26  2  0  0  0
 25 27  1  0  0  0
 28 29  1  0  0  0
 29 30  1  0  0  0
 29 36  1  0  0  0
 30 31  1  0  0  0
 30 37  1  0  0  0
 31 32  1  0  0  0
 31 49  1  0  0  0
 32 33  1  0  0  0
 32 38  2  0  0  0
 33 34  1  0  0  0
 34 35  1  0  0  0
 35 39  2  0  0  0
 35 43  1  0  0  0
 36 50  1  0  0  0
 39 40  1  0  0  0
 39 45  1  0  0  0
 40 41  2  0  0  0
 41 42  1  0  0  0
 42 43  2  0  0  0
 43 44  1  0  0  0
M  END
>  <CHROM.0>
-174.94416620,-110.42735451,-15.04770805

>  <CHROM.1>
-103.78537899,-57.88340116,-71.61632619,175.02929281,80.56192914,-88.44533342
-82.89082286,148.52873755,74.12729396,56.86622230,-58.46603766,171.36621430
-52.44227345,-156.70078307,-80.62190128,-64.69144080,-49.55797403,-3.49174655
16.69693049,-2.71501915,-0.54097473,-0.70753998

>  <Name>
Lopinavir.pdb

>  <RI>
-9.60994e+08

>  <Rbt.Current_Directory>
/root/miniconda3/envs/rdock/share/rxdock-2013.1.1_148c5bd1-0/data/ligands/prepped_ligands/Lopinavir

>  <Rbt.Executable>
rbdock/0.1.0

>  <Rbt.Library>
librxdock.so/0.1.0

>  <Rbt.Parameter_File>
/root/miniconda3/envs/rdock/share/rxdock-2013.1.1_148c5bd1-0/data/scripts/dock.prm

>  <Rbt.Receptor>
def.prm

>  <SCORE>
-2.67375

>  <SCORE.INTER>
-11.9374

>  <SCORE.INTER.CONST>
1

>  <SCORE.INTER.POLAR>
-0.4666

>  <SCORE.INTER.REPUL>
0.541659

>  <SCORE.INTER.ROT>
15

>  <SCORE.INTER.VDW>
-33.4593

>  <SCORE.INTER.norm>
-0.259509

>  <SCORE.INTRA>
4.88267

>  <SCORE.INTRA.DIHEDRAL>
2.09702

>  <SCORE.INTRA.DIHEDRAL.0>
17.6555

>  <SCORE.INTRA.POLAR>
-0.156026

>  <SCORE.INTRA.POLAR.0>
-0.227187

>  <SCORE.INTRA.REPUL>
0

>  <SCORE.INTRA.REPUL.0>
0

>  <SCORE.INTRA.VDW>
4.36465

>  <SCORE.INTRA.VDW.0>
-8.98636

>  <SCORE.INTRA.norm>
0.106145

>  <SCORE.RESTR>
0.00242206

>  <SCORE.RESTR.CAVITY>
0.00242206

>  <SCORE.RESTR.norm>
5.26534e-05

>  <SCORE.SYSTEM>
4.37858

>  <SCORE.SYSTEM.CONST>
0

>  <SCORE.SYSTEM.DIHEDRAL>
9.87477

>  <SCORE.SYSTEM.POLAR>
-0.000299329

>  <SCORE.SYSTEM.VDW>
-0.557783

>  <SCORE.SYSTEM.norm>
0.0951866

>  <SCORE.heavy>
46

>  <SCORE.norm>
-0.058125

$$$$
