Lopinavir.pdb
  RxDock  02242101263D
librxdock.so/0.1.0
 50 53  0  0  0  0  0  0  0  0999 V2000
  -42.1084    1.6287   20.1108 C   0  0  0  0  0  0
  -44.5689    1.5771   20.5996 C   0  0  0  0  0  0
  -44.5161    0.0723   20.4933 N   0  0  0  0  0  0
  -43.3286   -0.5893   20.2116 C   0  0  0  0  0  0
  -42.2014    0.1572   20.0356 N   0  0  0  0  0  0
  -49.7480    0.1871   13.2999 C   0  0  0  0  0  0
  -48.4590   -0.3458   13.0555 C   0  0  0  0  0  0
  -47.5180    0.3585   12.2645 C   0  0  0  0  0  0
  -47.8586    1.6057   11.7074 C   0  0  0  0  0  0
  -49.1415    2.1467   11.9437 C   0  0  0  0  0  0
  -50.0807    1.4439   12.7339 C   0  0  0  0  0  0
  -43.2700   -1.8033   20.1185 O   0  0  0  0  0  0
  -45.7700   -0.7364   20.6868 C   0  0  0  0  0  0
  -46.4970   -0.8861   19.3224 C   0  0  0  0  0  0
  -46.6547    0.3093   18.6735 N   0  0  0  0  0  0
  -47.3078    0.4744   17.3561 C   0  0  0  0  0  0
  -46.7057   -0.1170   21.7987 C   0  0  0  0  0  0
  -47.4262    1.1685   21.3486 C   0  0  0  0  0  0
  -47.7711   -1.1410   22.2543 C   0  0  0  0  0  0
  -46.8762   -1.9822   18.9063 O   0  0  0  0  0  0
  -43.7120   -2.1210   15.1813 C   0  0  0  0  0  0
  -42.9401   -2.2561   16.3600 C   0  0  0  0  0  0
  -43.2505   -1.4725   17.4958 C   0  0  0  0  0  0
  -44.3292   -0.5603   17.4473 C   0  0  0  0  0  0
  -45.1088   -0.4179   16.2673 C   0  0  0  0  0  0
  -44.7908   -1.2057   15.1369 C   0  0  0  0  0  0
  -46.2529    0.5550   16.2284 C   0  0  0  0  0  0
  -48.2123   -0.7307   17.0177 C   0  0  0  0  0  0
  -49.6268   -0.4943   16.4576 C   0  0  0  0  0  0
  -50.0910   -1.4172   15.3017 C   0  0  0  0  0  0
  -51.1037   -2.3569   15.8369 N   0  0  0  0  0  0
  -50.8358   -3.6531   16.1943 C   0  0  0  0  0  0
  -52.0591   -4.4424   16.7006 C   0  0  0  0  0  0
  -52.0040   -4.6634   18.1220 O   0  0  0  0  0  0
  -51.1186   -5.6880   18.5080 C   0  0  0  0  0  0
  -50.5070   -0.7033   17.5356 O   0  0  0  0  0  0
  -50.7354   -0.5837   14.1547 C   0  0  0  0  0  0
  -49.7270   -4.1937   16.1209 O   0  0  0  0  0  0
  -51.3577   -7.0645   18.1654 C   0  0  0  0  0  0
  -50.4259   -8.0527   18.5823 C   0  0  0  0  0  0
  -49.2767   -7.6997   19.3206 C   0  0  0  0  0  0
  -49.0322   -6.3534   19.6585 C   0  0  0  0  0  0
  -49.9392   -5.3420   19.2604 C   0  0  0  0  0  0
  -49.6490   -3.9277   19.6324 C   0  0  0  0  0  0
  -52.5676   -7.5025   17.3745 C   0  0  0  0  0  0
  -43.2215    2.2264   20.9793 C   0  0  0  0  0  0
  -41.3819   -0.4170   19.8371 H   0  0  0  0  0  0
  -46.2734    1.1029   19.1881 H   0  0  0  0  0  0
  -52.0775   -2.0851   15.9723 H   0  0  0  0  0  0
  -51.3631   -0.4252   17.2295 H   0  0  0  0  0  0
  1  5  1  0  0  0
  1 46  1  0  0  0
  2  3  1  0  0  0
  2 46  1  0  0  0
  3  4  1  0  0  0
  3 13  1  0  0  0
  4  5  1  0  0  0
  4 12  2  0  0  0
  5 47  1  0  0  0
  6  7  2  0  0  0
  6 11  1  0  0  0
  6 37  1  0  0  0
  7  8  1  0  0  0
  8  9  2  0  0  0
  9 10  1  0  0  0
 10 11  2  0  0  0
 13 14  1  0  0  0
 13 17  1  0  0  0
 14 15  1  0  0  0
 14 20  2  0  0  0
 15 16  1  0  0  0
 15 48  1  0  0  0
 16 27  1  0  0  0
 16 28  1  0  0  0
 17 18  1  0  0  0
 17 19  1  0  0  0
 21 22  2  0  0  0
 21 26  1  0  0  0
 22 23  1  0  0  0
 23 24  2  0  0  0
 24 25  1  0  0  0
 25 26  2  0  0  0
 25 27  1  0  0  0
 28 29  1  0  0  0
 29 30  1  0  0  0
 29 36  1  0  0  0
 30 31  1  0  0  0
 30 37  1  0  0  0
 31 32  1  0  0  0
 31 49  1  0  0  0
 32 33  1  0  0  0
 32 38  2  0  0  0
 33 34  1  0  0  0
 34 35  1  0  0  0
 35 39  2  0  0  0
 35 43  1  0  0  0
 36 50  1  0  0  0
 39 40  1  0  0  0
 39 45  1  0  0  0
 40 41  2  0  0  0
 41 42  1  0  0  0
 42 43  2  0  0  0
 43 44  1  0  0  0
M  END
>  <CHROM.0>
-58.40871438,-65.00899836,3.03719607

>  <CHROM.1>
88.45610545,33.16465371,-49.89568214,73.25501696,-98.28298356,43.81870549
134.35703425,-51.85065102,138.31770529,107.67294091,171.27832039,-99.85373054
74.61420988,-107.60770447,-77.20669410,-66.59100815,-47.61566832,-1.65340517
17.58436982,-0.12930830,0.65967724,2.19984505

>  <Name>
Lopinavir.pdb

>  <RI>
-2.66628e+08

>  <Rbt.Current_Directory>
/root/miniconda3/envs/rdock/share/rxdock-2013.1.1_148c5bd1-0/data/ligands/prepped_ligands/Lopinavir

>  <Rbt.Executable>
rbdock/0.1.0

>  <Rbt.Library>
librxdock.so/0.1.0

>  <Rbt.Parameter_File>
/root/miniconda3/envs/rdock/share/rxdock-2013.1.1_148c5bd1-0/data/scripts/dock.prm

>  <Rbt.Receptor>
def.prm

>  <SCORE>
18.4155

>  <SCORE.INTER>
-0.225012

>  <SCORE.INTER.CONST>
1

>  <SCORE.INTER.POLAR>
-0.407885

>  <SCORE.INTER.REPUL>
0.0495348

>  <SCORE.INTER.ROT>
15

>  <SCORE.INTER.VDW>
-19.4859

>  <SCORE.INTER.norm>
-0.00489156

>  <SCORE.INTRA>
17.0233

>  <SCORE.INTRA.DIHEDRAL>
13.5986

>  <SCORE.INTRA.DIHEDRAL.0>
17.6555

>  <SCORE.INTRA.POLAR>
0.227187

>  <SCORE.INTRA.POLAR.0>
-0.227187

>  <SCORE.INTRA.REPUL>
0

>  <SCORE.INTRA.REPUL.0>
0

>  <SCORE.INTRA.VDW>
9.45153

>  <SCORE.INTRA.VDW.0>
-8.98636

>  <SCORE.INTRA.norm>
0.370071

>  <SCORE.RESTR>
0.207933

>  <SCORE.RESTR.CAVITY>
0.207933

>  <SCORE.RESTR.norm>
0.00452028

>  <SCORE.SYSTEM>
1.40937

>  <SCORE.SYSTEM.CONST>
0

>  <SCORE.SYSTEM.DIHEDRAL>
3.70791

>  <SCORE.SYSTEM.VDW>
-0.444585

>  <SCORE.SYSTEM.norm>
0.0306385

>  <SCORE.heavy>
46

>  <SCORE.norm>
0.400338

$$$$
Lopinavir.pdb
  RxDock  02242101263D
librxdock.so/0.1.0
 50 53  0  0  0  0  0  0  0  0999 V2000
  -42.1098   -0.3273   19.3012 C   0  0  0  0  0  0
  -43.8178    0.5689   17.6964 C   0  0  0  0  0  0
  -44.2451   -0.8527   17.4224 N   0  0  0  0  0  0
  -43.6308   -1.9248   18.0551 C   0  0  0  0  0  0
  -42.6270   -1.6619   18.9395 N   0  0  0  0  0  0
  -51.8568   -2.8645   18.3242 C   0  0  0  0  0  0
  -52.6479   -3.8348   18.9859 C   0  0  0  0  0  0
  -52.3480   -4.2384   20.3105 C   0  0  0  0  0  0
  -51.2500   -3.6747   20.9876 C   0  0  0  0  0  0
  -50.4535   -2.7067   20.3374 C   0  0  0  0  0  0
  -50.7531   -2.3034   19.0153 C   0  0  0  0  0  0
  -43.9614   -3.0786   17.8418 O   0  0  0  0  0  0
  -45.3522   -1.1257   16.4408 C   0  0  0  0  0  0
  -46.6793   -1.3486   17.2164 C   0  0  0  0  0  0
  -47.7275   -0.6472   16.6831 N   0  0  0  0  0  0
  -49.1104   -0.6667   17.2091 C   0  0  0  0  0  0
  -45.0076   -2.3349   15.4843 C   0  0  0  0  0  0
  -46.1970   -2.7898   14.6168 C   0  0  0  0  0  0
  -43.8285   -1.9784   14.5496 C   0  0  0  0  0  0
  -46.7385   -2.0852   18.2024 O   0  0  0  0  0  0
  -46.9014    0.4217   21.0044 C   0  0  0  0  0  0
  -46.3623    1.7304   20.9904 C   0  0  0  0  0  0
  -46.8096    2.6634   20.0261 C   0  0  0  0  0  0
  -47.7919    2.2839   19.0831 C   0  0  0  0  0  0
  -48.3378    0.9714   19.0898 C   0  0  0  0  0  0
  -47.8844    0.0457   20.0578 C   0  0  0  0  0  0
  -49.3814    0.5802   18.0824 C   0  0  0  0  0  0
  -50.1504   -0.6307   16.0680 C   0  0  0  0  0  0
  -50.3819   -1.8824   15.2019 C   0  0  0  0  0  0
  -51.2513   -3.0115   15.8121 C   0  0  0  0  0  0
  -50.3478   -4.0090   16.4316 N   0  0  0  0  0  0
  -49.9452   -5.1667   15.8173 C   0  0  0  0  0  0
  -49.0245   -6.0580   16.6740 C   0  0  0  0  0  0
  -49.2039   -5.8178   18.0819 O   0  0  0  0  0  0
  -49.8027   -6.8884   18.7733 C   0  0  0  0  0  0
  -51.0401   -1.4314   14.0426 O   0  0  0  0  0  0
  -52.2018   -2.4453   16.9082 C   0  0  0  0  0  0
  -50.2772   -5.5179   14.6800 O   0  0  0  0  0  0
  -51.1767   -7.2554   18.5577 C   0  0  0  0  0  0
  -51.7231   -8.3469   19.2848 C   0  0  0  0  0  0
  -50.9370   -9.0699   20.2065 C   0  0  0  0  0  0
  -49.5890   -8.7198   20.4225 C   0  0  0  0  0  0
  -49.0111   -7.6375   19.7163 C   0  0  0  0  0  0
  -47.5817   -7.2956   19.9669 C   0  0  0  0  0  0
  -52.0661   -6.5216   17.5821 C   0  0  0  0  0  0
  -43.1567    0.7699   19.0763 C   0  0  0  0  0  0
  -42.2419   -2.5107   19.3540 H   0  0  0  0  0  0
  -47.4700   -0.0920   15.8673 H   0  0  0  0  0  0
  -49.9667   -3.8864   17.3698 H   0  0  0  0  0  0
  -51.2359   -2.2111   13.5352 H   0  0  0  0  0  0
  1  5  1  0  0  0
  1 46  1  0  0  0
  2  3  1  0  0  0
  2 46  1  0  0  0
  3  4  1  0  0  0
  3 13  1  0  0  0
  4  5  1  0  0  0
  4 12  2  0  0  0
  5 47  1  0  0  0
  6  7  2  0  0  0
  6 11  1  0  0  0
  6 37  1  0  0  0
  7  8  1  0  0  0
  8  9  2  0  0  0
  9 10  1  0  0  0
 10 11  2  0  0  0
 13 14  1  0  0  0
 13 17  1  0  0  0
 14 15  1  0  0  0
 14 20  2  0  0  0
 15 16  1  0  0  0
 15 48  1  0  0  0
 16 27  1  0  0  0
 16 28  1  0  0  0
 17 18  1  0  0  0
 17 19  1  0  0  0
 21 22  2  0  0  0
 21 26  1  0  0  0
 22 23  1  0  0  0
 23 24  2  0  0  0
 24 25  1  0  0  0
 25 26  2  0  0  0
 25 27  1  0  0  0
 28 29  1  0  0  0
 29 30  1  0  0  0
 29 36  1  0  0  0
 30 31  1  0  0  0
 30 37  1  0  0  0
 31 32  1  0  0  0
 31 49  1  0  0  0
 32 33  1  0  0  0
 32 38  2  0  0  0
 33 34  1  0  0  0
 34 35  1  0  0  0
 35 39  2  0  0  0
 35 43  1  0  0  0
 36 50  1  0  0  0
 39 40  1  0  0  0
 39 45  1  0  0  0
 40 41  2  0  0  0
 41 42  1  0  0  0
 42 43  2  0  0  0
 43 44  1  0  0  0
M  END
>  <CHROM.0>
-74.04660520,62.74450991,-54.17641315

>  <CHROM.1>
-98.61785133,-105.64340629,133.30060154,170.87857035,99.39176688,-45.51003176
73.34582044,125.10880344,78.29268741,-95.29499416,-176.23932731,-97.20765194
-110.19159027,24.20027238,111.23929008,-68.54873261,-48.26922501,-2.78288237
17.95581957,-0.78650458,0.06766683,3.04285218

>  <Name>
Lopinavir.pdb

>  <RI>
-2.66628e+08

>  <Rbt.Current_Directory>
/root/miniconda3/envs/rdock/share/rxdock-2013.1.1_148c5bd1-0/data/ligands/prepped_ligands/Lopinavir

>  <Rbt.Executable>
rbdock/0.1.0

>  <Rbt.Library>
librxdock.so/0.1.0

>  <Rbt.Parameter_File>
/root/miniconda3/envs/rdock/share/rxdock-2013.1.1_148c5bd1-0/data/scripts/dock.prm

>  <Rbt.Receptor>
def.prm

>  <SCORE>
-0.108163

>  <SCORE.INTER>
-8.56662

>  <SCORE.INTER.CONST>
1

>  <SCORE.INTER.POLAR>
-0.4666

>  <SCORE.INTER.REPUL>
0.130318

>  <SCORE.INTER.ROT>
15

>  <SCORE.INTER.VDW>
-28.0318

>  <SCORE.INTER.norm>
-0.186231

>  <SCORE.INTRA>
9.07301

>  <SCORE.INTRA.DIHEDRAL>
14.5199

>  <SCORE.INTRA.DIHEDRAL.0>
17.6555

>  <SCORE.INTRA.POLAR>
0.0738243

>  <SCORE.INTRA.POLAR.0>
-0.227187

>  <SCORE.INTRA.REPUL>
0

>  <SCORE.INTRA.REPUL.0>
0

>  <SCORE.INTRA.VDW>
1.56206

>  <SCORE.INTRA.VDW.0>
-8.98636

>  <SCORE.INTRA.norm>
0.197239

>  <SCORE.RESTR>
0.0382037

>  <SCORE.RESTR.CAVITY>
0.0382037

>  <SCORE.RESTR.norm>
0.000830515

>  <SCORE.SYSTEM>
-0.652759

>  <SCORE.SYSTEM.CONST>
0

>  <SCORE.SYSTEM.DIHEDRAL>
0.59039

>  <SCORE.SYSTEM.POLAR>
-0.0127658

>  <SCORE.SYSTEM.VDW>
-0.904551

>  <SCORE.SYSTEM.norm>
-0.0141904

>  <SCORE.heavy>
46

>  <SCORE.norm>
-0.00235137

$$$$
Lopinavir.pdb
  RxDock  02242101273D
librxdock.so/0.1.0
 50 53  0  0  0  0  0  0  0  0999 V2000
  -47.5303    0.7379   21.6452 C   0  0  0  0  0  0
  -47.1360   -0.6938   19.6227 C   0  0  0  0  0  0
  -47.1551    0.5603   18.7827 N   0  0  0  0  0  0
  -47.3523    1.8090   19.3562 C   0  0  0  0  0  0
  -47.5260    1.8776   20.7068 N   0  0  0  0  0  0
  -53.2592   -5.2766   15.9904 C   0  0  0  0  0  0
  -54.1960   -5.3730   14.9328 C   0  0  0  0  0  0
  -54.8823   -6.5857   14.6766 C   0  0  0  0  0  0
  -54.6367   -7.7173   15.4770 C   0  0  0  0  0  0
  -53.7041   -7.6333   16.5341 C   0  0  0  0  0  0
  -53.0193   -6.4225   16.7904 C   0  0  0  0  0  0
  -47.3745    2.8306   18.6915 O   0  0  0  0  0  0
  -46.9655    0.4666   17.2932 C   0  0  0  0  0  0
  -48.3401    0.2065   16.6185 C   0  0  0  0  0  0
  -48.2373    0.0116   15.2671 N   0  0  0  0  0  0
  -49.3780   -0.2593   14.3644 C   0  0  0  0  0  0
  -45.8913   -0.6239   16.9026 C   0  0  0  0  0  0
  -44.5808   -0.5099   17.7050 C   0  0  0  0  0  0
  -46.4596   -2.0492   17.0938 C   0  0  0  0  0  0
  -49.3877    0.1874   17.2670 O   0  0  0  0  0  0
  -48.6298    3.4048   11.0942 C   0  0  0  0  0  0
  -49.8902    3.9988   11.3433 C   0  0  0  0  0  0
  -50.8588    3.2986   12.0996 C   0  0  0  0  0  0
  -50.5625    2.0111   12.6022 C   0  0  0  0  0  0
  -49.2994    1.4071   12.3559 C   0  0  0  0  0  0
  -48.3376    2.1150   11.5988 C   0  0  0  0  0  0
  -48.9965    0.0383   12.8957 C   0  0  0  0  0  0
  -49.7960   -1.7453   14.4108 C   0  0  0  0  0  0
  -50.9355   -2.1924   15.3446 C   0  0  0  0  0  0
  -51.3313   -3.6908   15.3072 C   0  0  0  0  0  0
  -50.1728   -4.4880   15.7734 N   0  0  0  0  0  0
  -49.8092   -4.6179   17.0889 C   0  0  0  0  0  0
  -48.5517   -5.4782   17.3225 C   0  0  0  0  0  0
  -48.4285   -5.8857   18.6977 O   0  0  0  0  0  0
  -49.5304   -6.6191   19.1780 C   0  0  0  0  0  0
  -50.4946   -1.9113   16.6512 O   0  0  0  0  0  0
  -52.5417   -3.9657   16.2479 C   0  0  0  0  0  0
  -50.3984   -4.0965   18.0418 O   0  0  0  0  0  0
  -49.8907   -7.8961   18.6222 C   0  0  0  0  0  0
  -51.0125   -8.5888   19.1514 C   0  0  0  0  0  0
  -51.7688   -8.0423   20.2095 C   0  0  0  0  0  0
  -51.4220   -6.7932   20.7627 C   0  0  0  0  0  0
  -50.3107   -6.0743   20.2603 C   0  0  0  0  0  0
  -49.9701   -4.7571   20.8700 C   0  0  0  0  0  0
  -49.1175   -8.5330   17.4918 C   0  0  0  0  0  0
  -46.7411   -0.4560   21.0954 C   0  0  0  0  0  0
  -47.6596    2.8347   21.0334 H   0  0  0  0  0  0
  -47.2797    0.0701   14.9211 H   0  0  0  0  0  0
  -49.5687   -4.9956   15.1269 H   0  0  0  0  0  0
  -49.6714   -2.3759   16.7531 H   0  0  0  0  0  0
  1  5  1  0  0  0
  1 46  1  0  0  0
  2  3  1  0  0  0
  2 46  1  0  0  0
  3  4  1  0  0  0
  3 13  1  0  0  0
  4  5  1  0  0  0
  4 12  2  0  0  0
  5 47  1  0  0  0
  6  7  2  0  0  0
  6 11  1  0  0  0
  6 37  1  0  0  0
  7  8  1  0  0  0
  8  9  2  0  0  0
  9 10  1  0  0  0
 10 11  2  0  0  0
 13 14  1  0  0  0
 13 17  1  0  0  0
 14 15  1  0  0  0
 14 20  2  0  0  0
 15 16  1  0  0  0
 15 48  1  0  0  0
 16 27  1  0  0  0
 16 28  1  0  0  0
 17 18  1  0  0  0
 17 19  1  0  0  0
 21 22  2  0  0  0
 21 26  1  0  0  0
 22 23  1  0  0  0
 23 24  2  0  0  0
 24 25  1  0  0  0
 25 26  2  0  0  0
 25 27  1  0  0  0
 28 29  1  0  0  0
 29 30  1  0  0  0
 29 36  1  0  0  0
 30 31  1  0  0  0
 30 37  1  0  0  0
 31 32  1  0  0  0
 31 49  1  0  0  0
 32 33  1  0  0  0
 32 38  2  0  0  0
 33 34  1  0  0  0
 34 35  1  0  0  0
 35 39  2  0  0  0
 35 43  1  0  0  0
 36 50  1  0  0  0
 39 40  1  0  0  0
 39 45  1  0  0  0
 40 41  2  0  0  0
 41 42  1  0  0  0
 42 43  2  0  0  0
 43 44  1  0  0  0
M  END
>  <CHROM.0>
175.53815941,64.09254994,176.35527154

>  <CHROM.1>
86.50786501,-80.25798092,-175.53866458,-48.67372533,161.05951382,-92.95067816
95.06914757,-45.28672385,178.15531087,63.75032525,-56.66747165,77.17887059
162.98098087,-163.97050862,58.16133485,62.95337763,-49.62539875,-2.43895817
16.83993295,-1.00873198,0.86762613,2.37966670

>  <Name>
Lopinavir.pdb

>  <RI>
-2.66628e+08

>  <Rbt.Current_Directory>
/root/miniconda3/envs/rdock/share/rxdock-2013.1.1_148c5bd1-0/data/ligands/prepped_ligands/Lopinavir

>  <Rbt.Executable>
rbdock/0.1.0

>  <Rbt.Library>
librxdock.so/0.1.0

>  <Rbt.Parameter_File>
/root/miniconda3/envs/rdock/share/rxdock-2013.1.1_148c5bd1-0/data/scripts/dock.prm

>  <Rbt.Receptor>
def.prm

>  <SCORE>
-14.1613

>  <SCORE.INTER>
-23.2092

>  <SCORE.INTER.CONST>
1

>  <SCORE.INTER.POLAR>
-1.25109

>  <SCORE.INTER.REPUL>
0.083616

>  <SCORE.INTER.ROT>
15

>  <SCORE.INTER.VDW>
-39.7735

>  <SCORE.INTER.norm>
-0.504547

>  <SCORE.INTRA>
10.0182

>  <SCORE.INTRA.DIHEDRAL>
3.01113

>  <SCORE.INTRA.DIHEDRAL.0>
17.6555

>  <SCORE.INTRA.POLAR>
0.227187

>  <SCORE.INTRA.POLAR.0>
-0.227187

>  <SCORE.INTRA.REPUL>
0

>  <SCORE.INTRA.REPUL.0>
0

>  <SCORE.INTRA.VDW>
7.74015

>  <SCORE.INTRA.VDW.0>
-8.98636

>  <SCORE.INTRA.norm>
0.217786

>  <SCORE.RESTR>
0.0134908

>  <SCORE.RESTR.CAVITY>
0.0134908

>  <SCORE.RESTR.norm>
0.000293277

>  <SCORE.SYSTEM>
-0.983785

>  <SCORE.SYSTEM.CONST>
0

>  <SCORE.SYSTEM.DIHEDRAL>
0.170332

>  <SCORE.SYSTEM.VDW>
-1.06895

>  <SCORE.SYSTEM.norm>
-0.0213866

>  <SCORE.heavy>
46

>  <SCORE.norm>
-0.307855

$$$$
Lopinavir.pdb
  RxDock  02242101273D
librxdock.so/0.1.0
 50 53  0  0  0  0  0  0  0  0999 V2000
  -48.0631   -1.9414   14.8438 C   0  0  0  0  0  0
  -47.2946   -0.2122   16.4916 C   0  0  0  0  0  0
  -46.3725   -1.2489   17.0862 N   0  0  0  0  0  0
  -46.3170   -2.5400   16.5791 C   0  0  0  0  0  0
  -47.1183   -2.8515   15.5209 N   0  0  0  0  0  0
  -51.6734   -6.5968   21.4673 C   0  0  0  0  0  0
  -51.4471   -7.9890   21.5930 C   0  0  0  0  0  0
  -52.4911   -8.8639   21.9826 C   0  0  0  0  0  0
  -53.7750   -8.3533   22.2523 C   0  0  0  0  0  0
  -54.0123   -6.9665   22.1309 C   0  0  0  0  0  0
  -52.9702   -6.0930   21.7414 C   0  0  0  0  0  0
  -45.5809   -3.3897   17.0503 O   0  0  0  0  0  0
  -45.4974   -0.8897   18.2562 C   0  0  0  0  0  0
  -46.3799   -0.7311   19.5244 C   0  0  0  0  0  0
  -47.6173   -1.2998   19.3820 N   0  0  0  0  0  0
  -48.6679   -1.3066   20.4240 C   0  0  0  0  0  0
  -44.6265    0.3965   17.9684 C   0  0  0  0  0  0
  -45.2796    1.7028   18.4594 C   0  0  0  0  0  0
  -43.2299    0.2726   18.6207 C   0  0  0  0  0  0
  -45.9717   -0.1473   20.5299 O   0  0  0  0  0  0
  -50.5083    2.8376   18.2930 C   0  0  0  0  0  0
  -49.6532    3.6623   19.0624 C   0  0  0  0  0  0
  -48.8925    3.0980   20.1128 C   0  0  0  0  0  0
  -48.9902    1.7148   20.3873 C   0  0  0  0  0  0
  -49.8471    0.8797   19.6198 C   0  0  0  0  0  0
  -50.6036    1.4531   18.5718 C   0  0  0  0  0  0
  -49.9420   -0.5890   19.9214 C   0  0  0  0  0  0
  -49.0957   -2.7454   20.7869 C   0  0  0  0  0  0
  -49.7416   -3.6458   19.7180 C   0  0  0  0  0  0
  -50.9737   -4.4814   20.1503 C   0  0  0  0  0  0
  -51.6298   -5.0056   18.9298 N   0  0  0  0  0  0
  -52.2808   -4.2231   18.0114 C   0  0  0  0  0  0
  -52.9064   -5.0017   16.8373 C   0  0  0  0  0  0
  -54.1511   -5.6226   17.2080 O   0  0  0  0  0  0
  -54.4363   -6.8031   16.4954 C   0  0  0  0  0  0
  -50.1651   -2.7810   18.6916 O   0  0  0  0  0  0
  -50.5408   -5.6818   21.0432 C   0  0  0  0  0  0
  -52.3967   -2.9949   18.0821 O   0  0  0  0  0  0
  -53.6315   -7.9869   16.6375 C   0  0  0  0  0  0
  -53.9716   -9.1478   15.8925 C   0  0  0  0  0  0
  -55.0832   -9.1517   15.0238 C   0  0  0  0  0  0
  -55.8795   -7.9977   14.8800 C   0  0  0  0  0  0
  -55.5702   -6.8225   15.6061 C   0  0  0  0  0  0
  -56.4349   -5.6204   15.4324 C   0  0  0  0  0  0
  -52.4323   -8.0440   17.5541 C   0  0  0  0  0  0
  -47.6609   -0.4719   15.0152 C   0  0  0  0  0  0
  -47.0042   -3.8191   15.2185 H   0  0  0  0  0  0
  -47.7616   -1.7325   18.4698 H   0  0  0  0  0  0
  -51.6331   -5.9995   18.7003 H   0  0  0  0  0  0
  -49.3790   -2.5392   18.2149 H   0  0  0  0  0  0
  1  5  1  0  0  0
  1 46  1  0  0  0
  2  3  1  0  0  0
  2 46  1  0  0  0
  3  4  1  0  0  0
  3 13  1  0  0  0
  4  5  1  0  0  0
  4 12  2  0  0  0
  5 47  1  0  0  0
  6  7  2  0  0  0
  6 11  1  0  0  0
  6 37  1  0  0  0
  7  8  1  0  0  0
  8  9  2  0  0  0
  9 10  1  0  0  0
 10 11  2  0  0  0
 13 14  1  0  0  0
 13 17  1  0  0  0
 14 15  1  0  0  0
 14 20  2  0  0  0
 15 16  1  0  0  0
 15 48  1  0  0  0
 16 27  1  0  0  0
 16 28  1  0  0  0
 17 18  1  0  0  0
 17 19  1  0  0  0
 21 22  2  0  0  0
 21 26  1  0  0  0
 22 23  1  0  0  0
 23 24  2  0  0  0
 24 25  1  0  0  0
 25 26  2  0  0  0
 25 27  1  0  0  0
 28 29  1  0  0  0
 29 30  1  0  0  0
 29 36  1  0  0  0
 30 31  1  0  0  0
 30 37  1  0  0  0
 31 32  1  0  0  0
 31 49  1  0  0  0
 32 33  1  0  0  0
 32 38  2  0  0  0
 33 34  1  0  0  0
 34 35  1  0  0  0
 35 39  2  0  0  0
 35 43  1  0  0  0
 36 50  1  0  0  0
 39 40  1  0  0  0
 39 45  1  0  0  0
 40 41  2  0  0  0
 41 42  1  0  0  0
 42 43  2  0  0  0
 43 44  1  0  0  0
M  END
>  <CHROM.0>
-60.44814406,159.32649625,-90.12836152

>  <CHROM.1>
71.54946657,144.95469503,17.09031611,93.69613255,119.97746764,-64.50974346
-62.63649032,-33.76527041,-136.62917835,166.46146544,76.11456391,-68.18467956
-177.41864585,78.89766740,-150.74243384,65.88754611,-50.18613585,-3.22824445
18.44842092,0.06786624,-0.83127421,-1.41900941

>  <Name>
Lopinavir.pdb

>  <RI>
-2.66628e+08

>  <Rbt.Current_Directory>
/root/miniconda3/envs/rdock/share/rxdock-2013.1.1_148c5bd1-0/data/ligands/prepped_ligands/Lopinavir

>  <Rbt.Executable>
rbdock/0.1.0

>  <Rbt.Library>
librxdock.so/0.1.0

>  <Rbt.Parameter_File>
/root/miniconda3/envs/rdock/share/rxdock-2013.1.1_148c5bd1-0/data/scripts/dock.prm

>  <Rbt.Receptor>
def.prm

>  <SCORE>
29.1076

>  <SCORE.INTER>
5.73485

>  <SCORE.INTER.CONST>
1

>  <SCORE.INTER.POLAR>
-0.91676

>  <SCORE.INTER.REPUL>
0

>  <SCORE.INTER.ROT>
15

>  <SCORE.INTER.VDW>
-11.5482

>  <SCORE.INTER.norm>
0.124671

>  <SCORE.INTRA>
17.7497

>  <SCORE.INTRA.DIHEDRAL>
8.93479

>  <SCORE.INTRA.DIHEDRAL.0>
17.6555

>  <SCORE.INTRA.POLAR>
0.227187

>  <SCORE.INTRA.POLAR.0>
-0.227187

>  <SCORE.INTRA.REPUL>
0

>  <SCORE.INTRA.REPUL.0>
0

>  <SCORE.INTRA.VDW>
12.5099

>  <SCORE.INTRA.VDW.0>
-8.98636

>  <SCORE.INTRA.norm>
0.385863

>  <SCORE.RESTR>
4.64047

>  <SCORE.RESTR.CAVITY>
4.64047

>  <SCORE.RESTR.norm>
0.10088

>  <SCORE.SYSTEM>
0.982612

>  <SCORE.SYSTEM.CONST>
0

>  <SCORE.SYSTEM.DIHEDRAL>
3.73963

>  <SCORE.SYSTEM.VDW>
-0.887203

>  <SCORE.SYSTEM.norm>
0.0213611

>  <SCORE.heavy>
46

>  <SCORE.norm>
0.632774

$$$$
Lopinavir.pdb
  RxDock  02242101273D
librxdock.so/0.1.0
 50 53  0  0  0  0  0  0  0  0999 V2000
  -44.0733    2.2430   20.7333 C   0  0  0  0  0  0
  -46.1282    0.9787   20.0444 C   0  0  0  0  0  0
  -45.4261    0.6217   18.7567 N   0  0  0  0  0  0
  -44.1347    1.0585   18.4946 C   0  0  0  0  0  0
  -43.5089    1.8205   19.4362 N   0  0  0  0  0  0
  -52.4336   -5.1687   15.0858 C   0  0  0  0  0  0
  -53.1036   -4.2004   15.8725 C   0  0  0  0  0  0
  -54.4423   -4.4015   16.2903 C   0  0  0  0  0  0
  -55.1265   -5.5757   15.9230 C   0  0  0  0  0  0
  -54.4688   -6.5480   15.1379 C   0  0  0  0  0  0
  -53.1321   -6.3476   14.7213 C   0  0  0  0  0  0
  -43.5555    0.7823   17.4582 O   0  0  0  0  0  0
  -46.1324   -0.2171   17.7265 C   0  0  0  0  0  0
  -47.0908   -1.2070   18.4434 C   0  0  0  0  0  0
  -48.2232   -1.4652   17.7183 N   0  0  0  0  0  0
  -49.3122   -2.3702   18.1479 C   0  0  0  0  0  0
  -45.1156   -0.9557   16.7693 C   0  0  0  0  0  0
  -44.4932   -2.2199   17.3925 C   0  0  0  0  0  0
  -45.7996   -1.3515   15.4401 C   0  0  0  0  0  0
  -46.8230   -1.6847   19.5472 O   0  0  0  0  0  0
  -51.4978    2.0984   18.3502 C   0  0  0  0  0  0
  -50.2735    2.7681   18.5870 C   0  0  0  0  0  0
  -49.1121    2.0206   18.8916 C   0  0  0  0  0  0
  -49.1808    0.6103   18.9572 C   0  0  0  0  0  0
  -50.4065   -0.0700   18.7216 C   0  0  0  0  0  0
  -51.5621    0.6860   18.4177 C   0  0  0  0  0  0
  -50.4665   -1.5694   18.7940 C   0  0  0  0  0  0
  -49.9269   -3.1251   16.9490 C   0  0  0  0  0  0
  -49.1231   -4.2361   16.2489 C   0  0  0  0  0  0
  -49.9257   -5.4292   15.6697 C   0  0  0  0  0  0
  -50.6087   -6.1163   16.7905 N   0  0  0  0  0  0
  -50.3095   -7.3871   17.2091 C   0  0  0  0  0  0
  -51.1755   -7.8954   18.3786 C   0  0  0  0  0  0
  -51.7512   -6.8112   19.1304 O   0  0  0  0  0  0
  -51.1333   -6.5869   20.3757 C   0  0  0  0  0  0
  -48.4662   -3.6142   15.1708 O   0  0  0  0  0  0
  -50.9986   -4.9325   14.6559 C   0  0  0  0  0  0
  -49.4384   -8.1098   16.7133 O   0  0  0  0  0  0
  -51.7129   -7.0589   21.6048 C   0  0  0  0  0  0
  -51.0402   -6.8028   22.8297 C   0  0  0  0  0  0
  -49.8182   -6.0981   22.8519 C   0  0  0  0  0  0
  -49.2409   -5.6342   21.6528 C   0  0  0  0  0  0
  -49.8833   -5.8706   20.4136 C   0  0  0  0  0  0
  -49.2439   -5.3684   19.1639 C   0  0  0  0  0  0
  -53.0162   -7.8214   21.6437 C   0  0  0  0  0  0
  -45.1716    1.2880   21.2151 C   0  0  0  0  0  0
  -42.5658    2.0890   19.1549 H   0  0  0  0  0  0
  -48.2570   -0.9672   16.8289 H   0  0  0  0  0  0
  -51.3555   -5.6718   17.3246 H   0  0  0  0  0  0
  -47.9348   -4.2904   14.7655 H   0  0  0  0  0  0
  1  5  1  0  0  0
  1 46  1  0  0  0
  2  3  1  0  0  0
  2 46  1  0  0  0
  3  4  1  0  0  0
  3 13  1  0  0  0
  4  5  1  0  0  0
  4 12  2  0  0  0
  5 47  1  0  0  0
  6  7  2  0  0  0
  6 11  1  0  0  0
  6 37  1  0  0  0
  7  8  1  0  0  0
  8  9  2  0  0  0
  9 10  1  0  0  0
 10 11  2  0  0  0
 13 14  1  0  0  0
 13 17  1  0  0  0
 14 15  1  0  0  0
 14 20  2  0  0  0
 15 16  1  0  0  0
 15 48  1  0  0  0
 16 27  1  0  0  0
 16 28  1  0  0  0
 17 18  1  0  0  0
 17 19  1  0  0  0
 21 22  2  0  0  0
 21 26  1  0  0  0
 22 23  1  0  0  0
 23 24  2  0  0  0
 24 25  1  0  0  0
 25 26  2  0  0  0
 25 27  1  0  0  0
 28 29  1  0  0  0
 29 30  1  0  0  0
 29 36  1  0  0  0
 30 31  1  0  0  0
 30 37  1  0  0  0
 31 32  1  0  0  0
 31 49  1  0  0  0
 32 33  1  0  0  0
 32 38  2  0  0  0
 33 34  1  0  0  0
 34 35  1  0  0  0
 35 39  2  0  0  0
 35 43  1  0  0  0
 36 50  1  0  0  0
 39 40  1  0  0  0
 39 45  1  0  0  0
 40 41  2  0  0  0
 41 42  1  0  0  0
 42 43  2  0  0  0
 43 44  1  0  0  0
M  END
>  <CHROM.0>
14.44045800,176.36655474,72.81112022

>  <CHROM.1>
-32.13017086,88.10661004,146.80584103,79.29706370,97.21866189,7.98153602
71.39732094,-42.63219756,146.74512545,-62.35886370,177.15541180,-113.28573184
-114.75435072,-22.44977117,-105.07637375,-100.85406327,-49.19604355,-2.97934700
18.20608208,-0.42553052,0.77222951,2.27899478

>  <Name>
Lopinavir.pdb

>  <RI>
-2.66628e+08

>  <Rbt.Current_Directory>
/root/miniconda3/envs/rdock/share/rxdock-2013.1.1_148c5bd1-0/data/ligands/prepped_ligands/Lopinavir

>  <Rbt.Executable>
rbdock/0.1.0

>  <Rbt.Library>
librxdock.so/0.1.0

>  <Rbt.Parameter_File>
/root/miniconda3/envs/rdock/share/rxdock-2013.1.1_148c5bd1-0/data/scripts/dock.prm

>  <Rbt.Receptor>
def.prm

>  <SCORE>
19.0902

>  <SCORE.INTER>
-3.89054

>  <SCORE.INTER.CONST>
1

>  <SCORE.INTER.POLAR>
-0.473253

>  <SCORE.INTER.REPUL>
0

>  <SCORE.INTER.ROT>
15

>  <SCORE.INTER.VDW>
-22.6815

>  <SCORE.INTER.norm>
-0.0845771

>  <SCORE.INTRA>
18.545

>  <SCORE.INTRA.DIHEDRAL>
17.6936

>  <SCORE.INTRA.DIHEDRAL.0>
17.6555

>  <SCORE.INTRA.POLAR>
0.0671301

>  <SCORE.INTRA.POLAR.0>
-0.227187

>  <SCORE.INTRA.REPUL>
0

>  <SCORE.INTRA.REPUL.0>
0

>  <SCORE.INTRA.VDW>
9.46993

>  <SCORE.INTRA.VDW.0>
-8.98636

>  <SCORE.INTRA.norm>
0.403152

>  <SCORE.RESTR>
3.09887

>  <SCORE.RESTR.CAVITY>
3.09887

>  <SCORE.RESTR.norm>
0.0673668

>  <SCORE.SYSTEM>
1.3369

>  <SCORE.SYSTEM.CONST>
0

>  <SCORE.SYSTEM.DIHEDRAL>
3.56451

>  <SCORE.SYSTEM.POLAR>
-0.0182768

>  <SCORE.SYSTEM.VDW>
-0.383219

>  <SCORE.SYSTEM.norm>
0.029063

>  <SCORE.heavy>
46

>  <SCORE.norm>
0.415005

$$$$
Lopinavir.pdb
  RxDock  02242101273D
librxdock.so/0.1.0
 50 53  0  0  0  0  0  0  0  0999 V2000
  -44.1176   -0.9750   15.4815 C   0  0  0  0  0  0
  -45.1183    0.3995   17.3267 C   0  0  0  0  0  0
  -46.1384   -0.6941   17.5317 N   0  0  0  0  0  0
  -46.1313   -1.8420   16.7510 C   0  0  0  0  0  0
  -45.1718   -1.9614   15.7897 N   0  0  0  0  0  0
  -49.5550   -5.6824   19.3506 C   0  0  0  0  0  0
  -50.1784   -4.6099   20.0334 C   0  0  0  0  0  0
  -50.1230   -4.5157   21.4460 C   0  0  0  0  0  0
  -49.4425   -5.4969   22.1916 C   0  0  0  0  0  0
  -48.8175   -6.5715   21.5216 C   0  0  0  0  0  0
  -48.8724   -6.6652   20.1114 C   0  0  0  0  0  0
  -46.9503   -2.7323   16.9012 O   0  0  0  0  0  0
  -47.1927   -0.5449   18.5945 C   0  0  0  0  0  0
  -48.4877   -1.2689   18.1348 C   0  0  0  0  0  0
  -48.8147   -0.9921   16.8342 N   0  0  0  0  0  0
  -49.9920   -1.5405   16.1251 C   0  0  0  0  0  0
  -47.4517    0.9700   18.9601 C   0  0  0  0  0  0
  -48.8041    1.2109   19.6578 C   0  0  0  0  0  0
  -46.3274    1.5163   19.8705 C   0  0  0  0  0  0
  -49.1236   -2.0040   18.8920 O   0  0  0  0  0  0
  -49.2913    1.6654   12.2774 C   0  0  0  0  0  0
  -48.0901    0.9942   11.9456 C   0  0  0  0  0  0
  -47.7084   -0.1599   12.6685 C   0  0  0  0  0  0
  -48.5283   -0.6363   13.7167 C   0  0  0  0  0  0
  -49.7357    0.0324   14.0569 C   0  0  0  0  0  0
  -50.1089    1.1854   13.3283 C   0  0  0  0  0  0
  -50.5987   -0.4839   15.1730 C   0  0  0  0  0  0
  -49.6091   -2.7491   15.2433 C   0  0  0  0  0  0
  -49.3452   -4.1195   15.8936 C   0  0  0  0  0  0
  -50.1833   -4.4786   17.1473 C   0  0  0  0  0  0
  -51.5762   -4.7390   16.7148 N   0  0  0  0  0  0
  -52.6122   -3.8584   16.8901 C   0  0  0  0  0  0
  -53.9755   -4.3656   16.3800 C   0  0  0  0  0  0
  -54.4746   -5.4555   17.1769 O   0  0  0  0  0  0
  -54.6978   -6.6406   16.4499 C   0  0  0  0  0  0
  -49.6429   -5.0773   14.9062 O   0  0  0  0  0  0
  -49.6239   -5.7577   17.8376 C   0  0  0  0  0  0
  -52.5151   -2.7463   17.4203 O   0  0  0  0  0  0
  -53.7926   -7.7561   16.5233 C   0  0  0  0  0  0
  -54.0736   -8.9256   15.7670 C   0  0  0  0  0  0
  -55.2237   -9.0038   14.9537 C   0  0  0  0  0  0
  -56.1181   -7.9173   14.8775 C   0  0  0  0  0  0
  -55.8699   -6.7357   15.6167 C   0  0  0  0  0  0
  -56.8378   -5.6063   15.5151 C   0  0  0  0  0  0
  -52.5479   -7.7325   17.3786 C   0  0  0  0  0  0
  -43.7994   -0.0849   16.6885 C   0  0  0  0  0  0
  -45.2465   -2.8377   15.2728 H   0  0  0  0  0  0
  -48.1602   -0.3565   16.3785 H   0  0  0  0  0  0
  -51.8470   -5.6069   16.2523 H   0  0  0  0  0  0
  -48.9771   -4.9742   14.2354 H   0  0  0  0  0  0
  1  5  1  0  0  0
  1 46  1  0  0  0
  2  3  1  0  0  0
  2 46  1  0  0  0
  3  4  1  0  0  0
  3 13  1  0  0  0
  4  5  1  0  0  0
  4 12  2  0  0  0
  5 47  1  0  0  0
  6  7  2  0  0  0
  6 11  1  0  0  0
  6 37  1  0  0  0
  7  8  1  0  0  0
  8  9  2  0  0  0
  9 10  1  0  0  0
 10 11  2  0  0  0
 13 14  1  0  0  0
 13 17  1  0  0  0
 14 15  1  0  0  0
 14 20  2  0  0  0
 15 16  1  0  0  0
 15 48  1  0  0  0
 16 27  1  0  0  0
 16 28  1  0  0  0
 17 18  1  0  0  0
 17 19  1  0  0  0
 21 22  2  0  0  0
 21 26  1  0  0  0
 22 23  1  0  0  0
 23 24  2  0  0  0
 24 25  1  0  0  0
 25 26  2  0  0  0
 25 27  1  0  0  0
 28 29  1  0  0  0
 29 30  1  0  0  0
 29 36  1  0  0  0
 30 31  1  0  0  0
 30 37  1  0  0  0
 31 32  1  0  0  0
 31 49  1  0  0  0
 32 33  1  0  0  0
 32 38  2  0  0  0
 33 34  1  0  0  0
 34 35  1  0  0  0
 35 39  2  0  0  0
 35 43  1  0  0  0
 36 50  1  0  0  0
 39 40  1  0  0  0
 39 45  1  0  0  0
 40 41  2  0  0  0
 41 42  1  0  0  0
 42 43  2  0  0  0
 43 44  1  0  0  0
M  END
>  <CHROM.0>
-57.80287876,-175.53106808,-155.51620332

>  <CHROM.1>
148.34079493,10.30518132,-45.50271961,160.44312814,143.14977625,61.57976044
76.28002060,13.49190845,33.87597049,71.35538127,67.83954801,-103.81709534
137.14279752,68.60449485,-120.99117239,103.64438316,-49.91246841,-3.12827718
16.83562515,0.42342259,-0.64095086,-0.95057650

>  <Name>
Lopinavir.pdb

>  <RI>
-2.66628e+08

>  <Rbt.Current_Directory>
/root/miniconda3/envs/rdock/share/rxdock-2013.1.1_148c5bd1-0/data/ligands/prepped_ligands/Lopinavir

>  <Rbt.Executable>
rbdock/0.1.0

>  <Rbt.Library>
librxdock.so/0.1.0

>  <Rbt.Parameter_File>
/root/miniconda3/envs/rdock/share/rxdock-2013.1.1_148c5bd1-0/data/scripts/dock.prm

>  <Rbt.Receptor>
def.prm

>  <SCORE>
26.9407

>  <SCORE.INTER>
11.9311

>  <SCORE.INTER.CONST>
1

>  <SCORE.INTER.POLAR>
-0.0814921

>  <SCORE.INTER.REPUL>
0

>  <SCORE.INTER.ROT>
15

>  <SCORE.INTER.VDW>
-8.19187

>  <SCORE.INTER.norm>
0.259371

>  <SCORE.INTRA>
14.9183

>  <SCORE.INTRA.DIHEDRAL>
12.3768

>  <SCORE.INTRA.DIHEDRAL.0>
17.6555

>  <SCORE.INTRA.POLAR>
0.227187

>  <SCORE.INTRA.POLAR.0>
-0.227187

>  <SCORE.INTRA.REPUL>
0

>  <SCORE.INTRA.REPUL.0>
0

>  <SCORE.INTRA.VDW>
7.95745

>  <SCORE.INTRA.VDW.0>
-8.98636

>  <SCORE.INTRA.norm>
0.324311

>  <SCORE.RESTR>
0.292764

>  <SCORE.RESTR.CAVITY>
0.292764

>  <SCORE.RESTR.norm>
0.00636443

>  <SCORE.SYSTEM>
-0.201425

>  <SCORE.SYSTEM.CONST>
0

>  <SCORE.SYSTEM.DIHEDRAL>
1.38088

>  <SCORE.SYSTEM.POLAR>
-0.0160415

>  <SCORE.SYSTEM.VDW>
-0.837324

>  <SCORE.SYSTEM.norm>
-0.00437879

>  <SCORE.heavy>
46

>  <SCORE.norm>
0.585667

$$$$
Lopinavir.pdb
  RxDock  02242101273D
librxdock.so/0.1.0
 50 53  0  0  0  0  0  0  0  0999 V2000
  -43.1765   -1.1573   18.0677 C   0  0  0  0  0  0
  -45.1878    0.3198   18.3292 C   0  0  0  0  0  0
  -45.2109   -0.0416   19.7946 N   0  0  0  0  0  0
  -44.2712   -0.9066   20.3386 C   0  0  0  0  0  0
  -43.3172   -1.4234   19.5129 N   0  0  0  0  0  0
  -49.3122    0.4611   13.7681 C   0  0  0  0  0  0
  -50.0975    1.4198   13.0829 C   0  0  0  0  0  0
  -49.6713    1.9585   11.8438 C   0  0  0  0  0  0
  -48.4515    1.5433   11.2769 C   0  0  0  0  0  0
  -47.6597    0.5882   11.9515 C   0  0  0  0  0  0
  -48.0853    0.0500   13.1883 C   0  0  0  0  0  0
  -44.2785   -1.2116   21.5188 O   0  0  0  0  0  0
  -46.2727    0.5347   20.6912 C   0  0  0  0  0  0
  -47.6581   -0.0259   20.2681 C   0  0  0  0  0  0
  -47.5821   -1.2954   19.7608 N   0  0  0  0  0  0
  -48.7392   -2.0826   19.2800 C   0  0  0  0  0  0
  -46.2436    2.1141   20.7004 C   0  0  0  0  0  0
  -46.8702    2.7471   19.4431 C   0  0  0  0  0  0
  -46.9744    2.6707   21.9443 C   0  0  0  0  0  0
  -48.6905    0.6353   20.3915 O   0  0  0  0  0  0
  -51.7230   -5.2867   21.2461 C   0  0  0  0  0  0
  -52.7444   -5.3275   20.2671 C   0  0  0  0  0  0
  -52.8335   -4.2969   19.3025 C   0  0  0  0  0  0
  -51.9025   -3.2335   19.3216 C   0  0  0  0  0  0
  -50.8742   -3.1846   20.3019 C   0  0  0  0  0  0
  -50.7933   -4.2195   21.2620 C   0  0  0  0  0  0
  -49.8906   -2.0491   20.3115 C   0  0  0  0  0  0
  -49.3142   -1.5011   17.9700 C   0  0  0  0  0  0
  -48.5799   -1.7399   16.6379 C   0  0  0  0  0  0
  -49.4119   -1.5942   15.3380 C   0  0  0  0  0  0
  -50.6543   -2.3866   15.4915 N   0  0  0  0  0  0
  -51.4495   -2.7785   14.4457 C   0  0  0  0  0  0
  -52.7039   -3.5731   14.8593 C   0  0  0  0  0  0
  -52.5714   -4.9759   14.5650 O   0  0  0  0  0  0
  -52.1369   -5.7512   15.6573 C   0  0  0  0  0  0
  -47.5551   -0.7767   16.5858 O   0  0  0  0  0  0
  -49.7930   -0.1046   15.0905 C   0  0  0  0  0  0
  -51.2299   -2.5278   13.2557 O   0  0  0  0  0  0
  -50.7520   -5.8084   16.0423 C   0  0  0  0  0  0
  -50.3762   -6.6075   17.1552 C   0  0  0  0  0  0
  -51.3402   -7.3373   17.8820 C   0  0  0  0  0  0
  -52.6999   -7.2854   17.5143 C   0  0  0  0  0  0
  -53.1109   -6.5001   16.4105 C   0  0  0  0  0  0
  -54.5572   -6.4656   16.0504 C   0  0  0  0  0  0
  -49.6758   -5.0467   15.3053 C   0  0  0  0  0  0
  -43.7975    0.1876   17.6726 C   0  0  0  0  0  0
  -42.6725   -2.0431   20.0039 H   0  0  0  0  0  0
  -46.6327   -1.6672   19.7401 H   0  0  0  0  0  0
  -50.9939   -2.6911   16.4039 H   0  0  0  0  0  0
  -47.0790   -0.9473   15.7808 H   0  0  0  0  0  0
  1  5  1  0  0  0
  1 46  1  0  0  0
  2  3  1  0  0  0
  2 46  1  0  0  0
  3  4  1  0  0  0
  3 13  1  0  0  0
  4  5  1  0  0  0
  4 12  2  0  0  0
  5 47  1  0  0  0
  6  7  2  0  0  0
  6 11  1  0  0  0
  6 37  1  0  0  0
  7  8  1  0  0  0
  8  9  2  0  0  0
  9 10  1  0  0  0
 10 11  2  0  0  0
 13 14  1  0  0  0
 13 17  1  0  0  0
 14 15  1  0  0  0
 14 20  2  0  0  0
 15 16  1  0  0  0
 15 48  1  0  0  0
 16 27  1  0  0  0
 16 28  1  0  0  0
 17 18  1  0  0  0
 17 19  1  0  0  0
 21 22  2  0  0  0
 21 26  1  0  0  0
 22 23  1  0  0  0
 23 24  2  0  0  0
 24 25  1  0  0  0
 25 26  2  0  0  0
 25 27  1  0  0  0
 28 29  1  0  0  0
 29 30  1  0  0  0
 29 36  1  0  0  0
 30 31  1  0  0  0
 30 37  1  0  0  0
 31 32  1  0  0  0
 31 49  1  0  0  0
 32 33  1  0  0  0
 32 38  2  0  0  0
 33 34  1  0  0  0
 34 35  1  0  0  0
 35 39  2  0  0  0
 35 43  1  0  0  0
 36 50  1  0  0  0
 39 40  1  0  0  0
 39 45  1  0  0  0
 40 41  2  0  0  0
 41 42  1  0  0  0
 42 43  2  0  0  0
 43 44  1  0  0  0
M  END
>  <CHROM.0>
-161.43542297,178.78691257,-62.43928199

>  <CHROM.1>
66.38692133,145.86752993,31.58824361,77.04456921,-48.36651324,-155.21109923
76.25216566,-78.10182487,158.79494642,-49.52538972,177.68850987,-162.12449264
121.82644086,-105.56823891,96.05356960,-79.51968237,-49.07717334,-1.98585703
17.43670470,-0.06100181,-0.76571707,-1.16892479

>  <Name>
Lopinavir.pdb

>  <RI>
-2.66628e+08

>  <Rbt.Current_Directory>
/root/miniconda3/envs/rdock/share/rxdock-2013.1.1_148c5bd1-0/data/ligands/prepped_ligands/Lopinavir

>  <Rbt.Executable>
rbdock/0.1.0

>  <Rbt.Library>
librxdock.so/0.1.0

>  <Rbt.Parameter_File>
/root/miniconda3/envs/rdock/share/rxdock-2013.1.1_148c5bd1-0/data/scripts/dock.prm

>  <Rbt.Receptor>
def.prm

>  <SCORE>
3.28465

>  <SCORE.INTER>
-7.44401

>  <SCORE.INTER.CONST>
1

>  <SCORE.INTER.POLAR>
0

>  <SCORE.INTER.REPUL>
0

>  <SCORE.INTER.ROT>
15

>  <SCORE.INTER.VDW>
-27.844

>  <SCORE.INTER.norm>
-0.161826

>  <SCORE.INTRA>
10.5551

>  <SCORE.INTRA.DIHEDRAL>
11.8932

>  <SCORE.INTRA.DIHEDRAL.0>
17.6555

>  <SCORE.INTRA.POLAR>
0.227187

>  <SCORE.INTRA.POLAR.0>
-0.227187

>  <SCORE.INTRA.REPUL>
0

>  <SCORE.INTRA.REPUL.0>
0

>  <SCORE.INTRA.VDW>
3.8361

>  <SCORE.INTRA.VDW.0>
-8.98636

>  <SCORE.INTRA.norm>
0.229459

>  <SCORE.RESTR>
0.72774

>  <SCORE.RESTR.CAVITY>
0.72774

>  <SCORE.RESTR.norm>
0.0158204

>  <SCORE.SYSTEM>
-0.554207

>  <SCORE.SYSTEM.CONST>
0

>  <SCORE.SYSTEM.DIHEDRAL>
0.797896

>  <SCORE.SYSTEM.VDW>
-0.953155

>  <SCORE.SYSTEM.norm>
-0.012048

>  <SCORE.heavy>
46

>  <SCORE.norm>
0.0714055

$$$$
Lopinavir.pdb
  RxDock  02242101273D
librxdock.so/0.1.0
 50 53  0  0  0  0  0  0  0  0999 V2000
  -45.1233    0.9602   21.3078 C   0  0  0  0  0  0
  -47.5944    0.5635   21.1292 C   0  0  0  0  0  0
  -47.3019   -0.5625   20.1673 N   0  0  0  0  0  0
  -45.9998   -0.8870   19.8118 C   0  0  0  0  0  0
  -44.9830   -0.1617   20.3586 N   0  0  0  0  0  0
  -54.2302   -5.0065   14.9938 C   0  0  0  0  0  0
  -55.4326   -4.7538   15.6979 C   0  0  0  0  0  0
  -56.4655   -5.7223   15.7457 C   0  0  0  0  0  0
  -56.3060   -6.9561   15.0868 C   0  0  0  0  0  0
  -55.1115   -7.2189   14.3808 C   0  0  0  0  0  0
  -54.0801   -6.2523   14.3335 C   0  0  0  0  0  0
  -45.7470   -1.7905   19.0335 O   0  0  0  0  0  0
  -48.4358   -1.3506   19.5701 C   0  0  0  0  0  0
  -48.9272   -0.6406   18.2791 C   0  0  0  0  0  0
  -49.1951   -1.5180   17.2625 N   0  0  0  0  0  0
  -49.6799   -1.1305   15.9192 C   0  0  0  0  0  0
  -49.6044   -1.5817   20.6077 C   0  0  0  0  0  0
  -50.8525   -2.2412   19.9901 C   0  0  0  0  0  0
  -49.1250   -2.4542   21.7910 C   0  0  0  0  0  0
  -49.0476    0.5842   18.2181 O   0  0  0  0  0  0
  -44.8069   -1.9088   15.2886 C   0  0  0  0  0  0
  -44.4470   -0.8134   16.1096 C   0  0  0  0  0  0
  -45.4362    0.1098   16.5213 C   0  0  0  0  0  0
  -46.7773   -0.0669   16.1113 C   0  0  0  0  0  0
  -47.1470   -1.1638   15.2861 C   0  0  0  0  0  0
  -46.1510   -2.0815   14.8797 C   0  0  0  0  0  0
  -48.5759   -1.3408   14.8572 C   0  0  0  0  0  0
  -50.8773   -1.9998   15.4773 C   0  0  0  0  0  0
  -50.6357   -3.4244   14.9458 C   0  0  0  0  0  0
  -51.7095   -4.4924   15.2769 C   0  0  0  0  0  0
  -51.6235   -4.8035   16.7228 N   0  0  0  0  0  0
  -52.2976   -5.8322   17.3286 C   0  0  0  0  0  0
  -52.0678   -5.9394   18.8490 C   0  0  0  0  0  0
  -52.4219   -7.2399   19.3546 O   0  0  0  0  0  0
  -51.3209   -8.0079   19.7795 C   0  0  0  0  0  0
  -50.5833   -3.3081   13.5442 O   0  0  0  0  0  0
  -53.1372   -3.9558   14.9622 C   0  0  0  0  0  0
  -53.0496   -6.6243   16.7505 O   0  0  0  0  0  0
  -51.1407   -8.3752   21.1587 C   0  0  0  0  0  0
  -50.0099   -9.1534   21.5249 C   0  0  0  0  0  0
  -49.0711   -9.5681   20.5569 C   0  0  0  0  0  0
  -49.2405   -9.2158   19.2028 C   0  0  0  0  0  0
  -50.3551   -8.4407   18.8013 C   0  0  0  0  0  0
  -50.5051   -8.0878   17.3606 C   0  0  0  0  0  0
  -52.1133   -7.9639   22.2386 C   0  0  0  0  0  0
  -46.4348    0.8780   22.0975 C   0  0  0  0  0  0
  -44.0663   -0.4763   20.0403 H   0  0  0  0  0  0
  -49.0280   -2.4922   17.5138 H   0  0  0  0  0  0
  -51.0449   -4.2576   17.3614 H   0  0  0  0  0  0
  -51.3921   -2.8787   13.2888 H   0  0  0  0  0  0
  1  5  1  0  0  0
  1 46  1  0  0  0
  2  3  1  0  0  0
  2 46  1  0  0  0
  3  4  1  0  0  0
  3 13  1  0  0  0
  4  5  1  0  0  0
  4 12  2  0  0  0
  5 47  1  0  0  0
  6  7  2  0  0  0
  6 11  1  0  0  0
  6 37  1  0  0  0
  7  8  1  0  0  0
  8  9  2  0  0  0
  9 10  1  0  0  0
 10 11  2  0  0  0
 13 14  1  0  0  0
 13 17  1  0  0  0
 14 15  1  0  0  0
 14 20  2  0  0  0
 15 16  1  0  0  0
 15 48  1  0  0  0
 16 27  1  0  0  0
 16 28  1  0  0  0
 17 18  1  0  0  0
 17 19  1  0  0  0
 21 22  2  0  0  0
 21 26  1  0  0  0
 22 23  1  0  0  0
 23 24  2  0  0  0
 24 25  1  0  0  0
 25 26  2  0  0  0
 25 27  1  0  0  0
 28 29  1  0  0  0
 29 30  1  0  0  0
 29 36  1  0  0  0
 30 31  1  0  0  0
 30 37  1  0  0  0
 31 32  1  0  0  0
 31 49  1  0  0  0
 32 33  1  0  0  0
 32 38  2  0  0  0
 33 34  1  0  0  0
 34 35  1  0  0  0
 35 39  2  0  0  0
 35 43  1  0  0  0
 36 50  1  0  0  0
 39 40  1  0  0  0
 39 45  1  0  0  0
 40 41  2  0  0  0
 41 42  1  0  0  0
 42 43  2  0  0  0
 43 44  1  0  0  0
M  END
>  <CHROM.0>
-42.08753302,-64.01137116,-141.47537075

>  <CHROM.1>
87.45702734,132.40767149,138.33653602,173.29768639,109.42654605,-31.49238129
-78.35777642,-43.57695334,145.59833268,-70.96199104,-54.80272887,-170.78323884
168.64596906,-161.21757226,110.78109613,114.53890360,-49.88233449,-3.67593159
17.82208965,-0.28597111,0.74951905,2.22286124

>  <Name>
Lopinavir.pdb

>  <RI>
-2.66628e+08

>  <Rbt.Current_Directory>
/root/miniconda3/envs/rdock/share/rxdock-2013.1.1_148c5bd1-0/data/ligands/prepped_ligands/Lopinavir

>  <Rbt.Executable>
rbdock/0.1.0

>  <Rbt.Library>
librxdock.so/0.1.0

>  <Rbt.Parameter_File>
/root/miniconda3/envs/rdock/share/rxdock-2013.1.1_148c5bd1-0/data/scripts/dock.prm

>  <Rbt.Receptor>
def.prm

>  <SCORE>
7.98497

>  <SCORE.INTER>
-7.2322

>  <SCORE.INTER.CONST>
1

>  <SCORE.INTER.POLAR>
-0.0853191

>  <SCORE.INTER.REPUL>
0.103549

>  <SCORE.INTER.ROT>
15

>  <SCORE.INTER.VDW>
-27.8599

>  <SCORE.INTER.norm>
-0.157222

>  <SCORE.INTRA>
12.4357

>  <SCORE.INTRA.DIHEDRAL>
11.1969

>  <SCORE.INTRA.DIHEDRAL.0>
17.6555

>  <SCORE.INTRA.POLAR>
0.227187

>  <SCORE.INTRA.POLAR.0>
-0.227187

>  <SCORE.INTRA.REPUL>
0

>  <SCORE.INTRA.REPUL.0>
0

>  <SCORE.INTRA.VDW>
6.06482

>  <SCORE.INTRA.VDW.0>
-8.98636

>  <SCORE.INTRA.norm>
0.270342

>  <SCORE.RESTR>
1.61325

>  <SCORE.RESTR.CAVITY>
1.61325

>  <SCORE.RESTR.norm>
0.0350707

>  <SCORE.SYSTEM>
1.16819

>  <SCORE.SYSTEM.CONST>
0

>  <SCORE.SYSTEM.DIHEDRAL>
3.36602

>  <SCORE.SYSTEM.POLAR>
-0.00396982

>  <SCORE.SYSTEM.VDW>
-0.501326

>  <SCORE.SYSTEM.norm>
0.0253954

>  <SCORE.heavy>
46

>  <SCORE.norm>
0.173586

$$$$
Lopinavir.pdb
  RxDock  02242101283D
librxdock.so/0.1.0
 50 53  0  0  0  0  0  0  0  0999 V2000
  -52.0620   -5.4017   21.7528 C   0  0  0  0  0  0
  -49.6576   -5.9296   21.2669 C   0  0  0  0  0  0
  -50.1253   -6.8446   20.1612 N   0  0  0  0  0  0
  -51.4759   -7.0136   19.8882 C   0  0  0  0  0  0
  -52.3772   -6.3257   20.6454 N   0  0  0  0  0  0
  -49.4697   -0.3735   15.5137 C   0  0  0  0  0  0
  -48.8971    0.0831   14.3017 C   0  0  0  0  0  0
  -49.4752   -0.2510   13.0522 C   0  0  0  0  0  0
  -50.6344   -1.0482   13.0025 C   0  0  0  0  0  0
  -51.2139   -1.5099   14.2046 C   0  0  0  0  0  0
  -50.6371   -1.1760   15.4521 C   0  0  0  0  0  0
  -51.8700   -7.7516   19.0017 O   0  0  0  0  0  0
  -49.1177   -7.5992   19.3373 C   0  0  0  0  0  0
  -48.9542   -6.8973   17.9614 C   0  0  0  0  0  0
  -48.8217   -5.5391   18.0733 N   0  0  0  0  0  0
  -48.6481   -4.6115   16.9336 C   0  0  0  0  0  0
  -49.5005   -9.1248   19.1891 C   0  0  0  0  0  0
  -48.4105   -9.9671   18.4988 C   0  0  0  0  0  0
  -49.8030   -9.7527   20.5695 C   0  0  0  0  0  0
  -48.9511   -7.5325   16.9055 O   0  0  0  0  0  0
  -52.6014   -6.4034   16.4234 C   0  0  0  0  0  0
  -53.7827   -5.6245   16.4597 C   0  0  0  0  0  0
  -53.6931   -4.2197   16.5968 C   0  0  0  0  0  0
  -52.4254   -3.6023   16.6961 C   0  0  0  0  0  0
  -51.2342   -4.3773   16.6613 C   0  0  0  0  0  0
  -51.3341   -5.7811   16.5239 C   0  0  0  0  0  0
  -49.8928   -3.7092   16.7676 C   0  0  0  0  0  0
  -47.4508   -3.6614   17.1545 C   0  0  0  0  0  0
  -47.5383   -2.1966   16.6885 C   0  0  0  0  0  0
  -48.2424   -1.1948   17.6392 C   0  0  0  0  0  0
  -47.2362   -0.6786   18.5964 N   0  0  0  0  0  0
  -47.3087   -0.8511   19.9545 C   0  0  0  0  0  0
  -46.1562   -0.1997   20.7441 C   0  0  0  0  0  0
  -45.0086   -1.0645   20.8295 O   0  0  0  0  0  0
  -43.7922   -0.4351   20.5028 C   0  0  0  0  0  0
  -46.2086   -1.7614   16.5367 O   0  0  0  0  0  0
  -48.8351    0.0025   16.8388 C   0  0  0  0  0  0
  -48.2097   -1.4568   20.5449 O   0  0  0  0  0  0
  -43.2907    0.6820   21.2578 C   0  0  0  0  0  0
  -42.0554    1.2734   20.8797 C   0  0  0  0  0  0
  -41.3208    0.7782   19.7818 C   0  0  0  0  0  0
  -41.8023   -0.3176   19.0378 C   0  0  0  0  0  0
  -43.0297   -0.9316   19.3852 C   0  0  0  0  0  0
  -43.5087   -2.0904   18.5786 C   0  0  0  0  0  0
  -44.0304    1.2534   22.4443 C   0  0  0  0  0  0
  -50.6561   -4.8057   21.6151 C   0  0  0  0  0  0
  -53.3409   -6.5122   20.3677 H   0  0  0  0  0  0
  -48.8534   -5.2071   19.0371 H   0  0  0  0  0  0
  -46.4157   -0.1552   18.2908 H   0  0  0  0  0  0
  -46.2581   -0.9306   16.0771 H   0  0  0  0  0  0
  1  5  1  0  0  0
  1 46  1  0  0  0
  2  3  1  0  0  0
  2 46  1  0  0  0
  3  4  1  0  0  0
  3 13  1  0  0  0
  4  5  1  0  0  0
  4 12  2  0  0  0
  5 47  1  0  0  0
  6  7  2  0  0  0
  6 11  1  0  0  0
  6 37  1  0  0  0
  7  8  1  0  0  0
  8  9  2  0  0  0
  9 10  1  0  0  0
 10 11  2  0  0  0
 13 14  1  0  0  0
 13 17  1  0  0  0
 14 15  1  0  0  0
 14 20  2  0  0  0
 15 16  1  0  0  0
 15 48  1  0  0  0
 16 27  1  0  0  0
 16 28  1  0  0  0
 17 18  1  0  0  0
 17 19  1  0  0  0
 21 22  2  0  0  0
 21 26  1  0  0  0
 22 23  1  0  0  0
 23 24  2  0  0  0
 24 25  1  0  0  0
 25 26  2  0  0  0
 25 27  1  0  0  0
 28 29  1  0  0  0
 29 30  1  0  0  0
 29 36  1  0  0  0
 30 31  1  0  0  0
 30 37  1  0  0  0
 31 32  1  0  0  0
 31 49  1  0  0  0
 32 33  1  0  0  0
 32 38  2  0  0  0
 33 34  1  0  0  0
 34 35  1  0  0  0
 35 39  2  0  0  0
 35 43  1  0  0  0
 36 50  1  0  0  0
 39 40  1  0  0  0
 39 45  1  0  0  0
 40 41  2  0  0  0
 41 42  1  0  0  0
 42 43  2  0  0  0
 43 44  1  0  0  0
M  END
>  <CHROM.0>
49.03915940,61.08678940,65.18956102

>  <CHROM.1>
-102.59778740,-114.41105194,46.06629944,-173.01625796,112.19596037,-53.29661921
-142.52933805,171.16733562,83.05389563,86.94470378,168.26091784,-118.46397085
39.65413917,-85.76909296,131.74948784,61.43464715,-48.48969155,-3.44383533
18.32637847,-2.68456577,-0.64328546,-0.68997097

>  <Name>
Lopinavir.pdb

>  <RI>
-2.66628e+08

>  <Rbt.Current_Directory>
/root/miniconda3/envs/rdock/share/rxdock-2013.1.1_148c5bd1-0/data/ligands/prepped_ligands/Lopinavir

>  <Rbt.Executable>
rbdock/0.1.0

>  <Rbt.Library>
librxdock.so/0.1.0

>  <Rbt.Parameter_File>
/root/miniconda3/envs/rdock/share/rxdock-2013.1.1_148c5bd1-0/data/scripts/dock.prm

>  <Rbt.Receptor>
def.prm

>  <SCORE>
5.8338

>  <SCORE.INTER>
-4.97969

>  <SCORE.INTER.CONST>
1

>  <SCORE.INTER.POLAR>
0

>  <SCORE.INTER.REPUL>
0.138893

>  <SCORE.INTER.ROT>
15

>  <SCORE.INTER.VDW>
-26.0742

>  <SCORE.INTER.norm>
-0.108254

>  <SCORE.INTRA>
10.9976

>  <SCORE.INTRA.DIHEDRAL>
11.711

>  <SCORE.INTRA.DIHEDRAL.0>
17.6555

>  <SCORE.INTRA.POLAR>
0.227187

>  <SCORE.INTRA.POLAR.0>
-0.227187

>  <SCORE.INTRA.REPUL>
0

>  <SCORE.INTRA.REPUL.0>
0

>  <SCORE.INTRA.VDW>
4.36967

>  <SCORE.INTRA.VDW.0>
-8.98636

>  <SCORE.INTRA.norm>
0.239078

>  <SCORE.RESTR>
0.55803

>  <SCORE.RESTR.CAVITY>
0.55803

>  <SCORE.RESTR.norm>
0.0121311

>  <SCORE.SYSTEM>
-0.742122

>  <SCORE.SYSTEM.CONST>
0

>  <SCORE.SYSTEM.DIHEDRAL>
0.363922

>  <SCORE.SYSTEM.POLAR>
-0.0112804

>  <SCORE.SYSTEM.VDW>
-0.88573

>  <SCORE.SYSTEM.norm>
-0.0161331

>  <SCORE.heavy>
46

>  <SCORE.norm>
0.126822

$$$$
Lopinavir.pdb
  RxDock  02242101283D
librxdock.so/0.1.0
 50 53  0  0  0  0  0  0  0  0999 V2000
  -52.1761   -7.1401   20.7004 C   0  0  0  0  0  0
  -50.8384   -6.8275   18.6007 C   0  0  0  0  0  0
  -49.7537   -6.1918   19.4361 N   0  0  0  0  0  0
  -49.8928   -6.0480   20.8098 C   0  0  0  0  0  0
  -51.0392   -6.5012   21.3922 N   0  0  0  0  0  0
  -48.5331   -1.7468   14.9015 C   0  0  0  0  0  0
  -48.8306   -0.3838   14.6588 C   0  0  0  0  0  0
  -49.8550   -0.0124   13.7533 C   0  0  0  0  0  0
  -50.5930   -1.0034   13.0789 C   0  0  0  0  0  0
  -50.3047   -2.3660   13.3124 C   0  0  0  0  0  0
  -49.2824   -2.7368   14.2168 C   0  0  0  0  0  0
  -49.0281   -5.5333   21.4978 O   0  0  0  0  0  0
  -48.4963   -5.6936   18.7771 C   0  0  0  0  0  0
  -48.8741   -4.7425   17.6087 C   0  0  0  0  0  0
  -49.7654   -3.7729   17.9835 N   0  0  0  0  0  0
  -50.3021   -2.7272   17.0847 C   0  0  0  0  0  0
  -47.5672   -6.8811   18.3055 C   0  0  0  0  0  0
  -47.0026   -7.7184   19.4692 C   0  0  0  0  0  0
  -48.3268   -7.8264   17.3461 C   0  0  0  0  0  0
  -48.4004   -4.8818   16.4798 O   0  0  0  0  0  0
  -53.6920   -6.0216   16.8517 C   0  0  0  0  0  0
  -54.0802   -6.0046   15.4907 C   0  0  0  0  0  0
  -53.7383   -4.8994   14.6771 C   0  0  0  0  0  0
  -53.0111   -3.8194   15.2275 C   0  0  0  0  0  0
  -52.6182   -3.8282   16.5936 C   0  0  0  0  0  0
  -52.9645   -4.9376   17.3989 C   0  0  0  0  0  0
  -51.8453   -2.6743   17.1666 C   0  0  0  0  0  0
  -49.7987   -1.3234   17.4856 C   0  0  0  0  0  0
  -48.3773   -1.1513   18.0517 C   0  0  0  0  0  0
  -47.2134   -1.0920   17.0295 C   0  0  0  0  0  0
  -45.9569   -1.4313   17.7374 N   0  0  0  0  0  0
  -44.7232   -0.9462   17.3878 C   0  0  0  0  0  0
  -43.5622   -1.4642   18.2594 C   0  0  0  0  0  0
  -43.8685   -1.3839   19.6637 O   0  0  0  0  0  0
  -44.0079   -0.0678   20.1446 C   0  0  0  0  0  0
  -48.3851    0.0736   18.7445 O   0  0  0  0  0  0
  -47.4355   -2.1187   15.8797 C   0  0  0  0  0  0
  -44.5065   -0.1691   16.4517 O   0  0  0  0  0  0
  -45.2461    0.4082   20.7008 C   0  0  0  0  0  0
  -45.3235    1.7466   21.1714 C   0  0  0  0  0  0
  -44.2063    2.6052   21.1014 C   0  0  0  0  0  0
  -42.9880    2.1471   20.5608 C   0  0  0  0  0  0
  -42.8743    0.8199   20.0817 C   0  0  0  0  0  0
  -41.5703    0.3670   19.5185 C   0  0  0  0  0  0
  -46.4742   -0.4649   20.8053 C   0  0  0  0  0  0
  -51.7453   -7.7991   19.3848 C   0  0  0  0  0  0
  -51.0465   -6.3547   22.4017 H   0  0  0  0  0  0
  -50.0387   -3.8313   18.9643 H   0  0  0  0  0  0
  -45.9402   -2.0582   18.5419 H   0  0  0  0  0  0
  -48.5230    0.7442   18.0849 H   0  0  0  0  0  0
  1  5  1  0  0  0
  1 46  1  0  0  0
  2  3  1  0  0  0
  2 46  1  0  0  0
  3  4  1  0  0  0
  3 13  1  0  0  0
  4  5  1  0  0  0
  4 12  2  0  0  0
  5 47  1  0  0  0
  6  7  2  0  0  0
  6 11  1  0  0  0
  6 37  1  0  0  0
  7  8  1  0  0  0
  8  9  2  0  0  0
  9 10  1  0  0  0
 10 11  2  0  0  0
 13 14  1  0  0  0
 13 17  1  0  0  0
 14 15  1  0  0  0
 14 20  2  0  0  0
 15 16  1  0  0  0
 15 48  1  0  0  0
 16 27  1  0  0  0
 16 28  1  0  0  0
 17 18  1  0  0  0
 17 19  1  0  0  0
 21 22  2  0  0  0
 21 26  1  0  0  0
 22 23  1  0  0  0
 23 24  2  0  0  0
 24 25  1  0  0  0
 25 26  2  0  0  0
 25 27  1  0  0  0
 28 29  1  0  0  0
 29 30  1  0  0  0
 29 36  1  0  0  0
 30 31  1  0  0  0
 30 37  1  0  0  0
 31 32  1  0  0  0
 31 49  1  0  0  0
 32 33  1  0  0  0
 32 38  2  0  0  0
 33 34  1  0  0  0
 34 35  1  0  0  0
 35 39  2  0  0  0
 35 43  1  0  0  0
 36 50  1  0  0  0
 39 40  1  0  0  0
 39 45  1  0  0  0
 40 41  2  0  0  0
 41 42  1  0  0  0
 42 43  2  0  0  0
 43 44  1  0  0  0
M  END
>  <CHROM.0>
99.69298485,178.41458724,-177.41407706

>  <CHROM.1>
52.65790424,29.36326153,50.30311692,-65.46188944,129.28624974,-69.49201299
34.90119514,-89.23849745,81.19438026,-159.20400543,-65.42900512,-150.10629161
72.40584531,-47.07855412,-65.85382949,118.01760275,-48.42378169,-2.95196698
17.93833226,-2.83894933,-0.65133950,-0.77452070

>  <Name>
Lopinavir.pdb

>  <RI>
-2.66628e+08

>  <Rbt.Current_Directory>
/root/miniconda3/envs/rdock/share/rxdock-2013.1.1_148c5bd1-0/data/ligands/prepped_ligands/Lopinavir

>  <Rbt.Executable>
rbdock/0.1.0

>  <Rbt.Library>
librxdock.so/0.1.0

>  <Rbt.Parameter_File>
/root/miniconda3/envs/rdock/share/rxdock-2013.1.1_148c5bd1-0/data/scripts/dock.prm

>  <Rbt.Receptor>
def.prm

>  <SCORE>
-2.25907

>  <SCORE.INTER>
-9.6059

>  <SCORE.INTER.CONST>
1

>  <SCORE.INTER.POLAR>
-0.4666

>  <SCORE.INTER.REPUL>
0

>  <SCORE.INTER.ROT>
15

>  <SCORE.INTER.VDW>
-28.4195

>  <SCORE.INTER.norm>
-0.208824

>  <SCORE.INTRA>
6.46054

>  <SCORE.INTRA.DIHEDRAL>
1.1216

>  <SCORE.INTRA.DIHEDRAL.0>
17.6555

>  <SCORE.INTRA.POLAR>
0.225575

>  <SCORE.INTRA.POLAR.0>
-0.227187

>  <SCORE.INTRA.REPUL>
0

>  <SCORE.INTRA.REPUL.0>
0

>  <SCORE.INTRA.VDW>
5.13278

>  <SCORE.INTRA.VDW.0>
-8.98636

>  <SCORE.INTRA.norm>
0.140446

>  <SCORE.RESTR>
0.119677

>  <SCORE.RESTR.CAVITY>
0.119677

>  <SCORE.RESTR.norm>
0.00260167

>  <SCORE.SYSTEM>
0.766613

>  <SCORE.SYSTEM.CONST>
0

>  <SCORE.SYSTEM.DIHEDRAL>
2.68932

>  <SCORE.SYSTEM.POLAR>
-0.00784937

>  <SCORE.SYSTEM.VDW>
-0.551362

>  <SCORE.SYSTEM.norm>
0.0166655

>  <SCORE.heavy>
46

>  <SCORE.norm>
-0.0491103

$$$$
