Lopinavir.pdb
  RxDock  02242111043D
librxdock.so/0.1.0
 50 53  0  0  0  0  0  0  0  0999 V2000
  -42.6543    0.8327   18.5087 C   0  0  0  0  0  0
  -45.0231    1.2390   19.2294 C   0  0  0  0  0  0
  -44.8724    0.1079   20.2176 N   0  0  0  0  0  0
  -43.6839   -0.6013   20.3259 C   0  0  0  0  0  0
  -42.6464   -0.2472   19.5152 N   0  0  0  0  0  0
  -51.6685   -4.0616   20.0513 C   0  0  0  0  0  0
  -50.3318   -4.5281   20.0822 C   0  0  0  0  0  0
  -50.0373   -5.8713   20.4230 C   0  0  0  0  0  0
  -51.0797   -6.7633   20.7384 C   0  0  0  0  0  0
  -52.4166   -6.3091   20.7116 C   0  0  0  0  0  0
  -52.7107   -4.9683   20.3709 C   0  0  0  0  0  0
  -43.5475   -1.5196   21.1157 O   0  0  0  0  0  0
  -46.0284   -0.2724   21.1023 C   0  0  0  0  0  0
  -47.3041   -0.4400   20.2322 C   0  0  0  0  0  0
  -47.0402   -0.9952   19.0086 N   0  0  0  0  0  0
  -48.0582   -1.2756   17.9721 C   0  0  0  0  0  0
  -46.2373    0.7626   22.2774 C   0  0  0  0  0  0
  -44.9871    0.9528   23.1576 C   0  0  0  0  0  0
  -46.6617    2.1434   21.7256 C   0  0  0  0  0  0
  -48.4156   -0.0956   20.6375 O   0  0  0  0  0  0
  -45.1422   -0.4606   14.4230 C   0  0  0  0  0  0
  -43.8857   -0.9952   14.7959 C   0  0  0  0  0  0
  -43.8073   -1.9312   15.8533 C   0  0  0  0  0  0
  -44.9830   -2.3273   16.5305 C   0  0  0  0  0  0
  -46.2487   -1.7946   16.1628 C   0  0  0  0  0  0
  -46.3170   -0.8595   15.1044 C   0  0  0  0  0  0
  -47.4911   -2.2238   16.8902 C   0  0  0  0  0  0
  -49.2920   -1.9877   18.5685 C   0  0  0  0  0  0
  -50.4200   -2.4736   17.6401 C   0  0  0  0  0  0
  -51.8740   -2.3139   18.1534 C   0  0  0  0  0  0
  -52.7316   -3.2771   17.4240 N   0  0  0  0  0  0
  -52.8398   -3.3280   16.0582 C   0  0  0  0  0  0
  -53.8155   -4.3999   15.5338 C   0  0  0  0  0  0
  -54.4742   -5.0968   16.6074 O   0  0  0  0  0  0
  -54.5145   -6.4947   16.4426 C   0  0  0  0  0  0
  -50.3075   -1.7075   16.4649 O   0  0  0  0  0  0
  -51.9581   -2.6206   19.6780 C   0  0  0  0  0  0
  -52.2383   -2.5886   15.2716 O   0  0  0  0  0  0
  -55.6714   -7.1612   15.9073 C   0  0  0  0  0  0
  -55.6504   -8.5745   15.7634 C   0  0  0  0  0  0
  -54.5143   -9.3240   16.1346 C   0  0  0  0  0  0
  -53.3748   -8.6798   16.6572 C   0  0  0  0  0  0
  -53.3603   -7.2731   16.8153 C   0  0  0  0  0  0
  -52.1377   -6.6234   17.3687 C   0  0  0  0  0  0
  -56.9148   -6.4123   15.4894 C   0  0  0  0  0  0
  -43.6906    1.9129   18.8400 C   0  0  0  0  0  0
  -41.8181   -0.8220   19.6707 H   0  0  0  0  0  0
  -46.0531   -1.2068   18.8643 H   0  0  0  0  0  0
  -53.3010   -3.9710   17.9085 H   0  0  0  0  0  0
  -50.4439   -0.8046   16.7294 H   0  0  0  0  0  0
  1  5  1  0  0  0
  1 46  1  0  0  0
  2  3  1  0  0  0
  2 46  1  0  0  0
  3  4  1  0  0  0
  3 13  1  0  0  0
  4  5  1  0  0  0
  4 12  2  0  0  0
  5 47  1  0  0  0
  6  7  2  0  0  0
  6 11  1  0  0  0
  6 37  1  0  0  0
  7  8  1  0  0  0
  8  9  2  0  0  0
  9 10  1  0  0  0
 10 11  2  0  0  0
 13 14  1  0  0  0
 13 17  1  0  0  0
 14 15  1  0  0  0
 14 20  2  0  0  0
 15 16  1  0  0  0
 15 48  1  0  0  0
 16 27  1  0  0  0
 16 28  1  0  0  0
 17 18  1  0  0  0
 17 19  1  0  0  0
 21 22  2  0  0  0
 21 26  1  0  0  0
 22 23  1  0  0  0
 23 24  2  0  0  0
 24 25  1  0  0  0
 25 26  2  0  0  0
 25 27  1  0  0  0
 28 29  1  0  0  0
 29 30  1  0  0  0
 29 36  1  0  0  0
 30 31  1  0  0  0
 30 37  1  0  0  0
 31 32  1  0  0  0
 31 49  1  0  0  0
 32 33  1  0  0  0
 32 38  2  0  0  0
 33 34  1  0  0  0
 34 35  1  0  0  0
 35 39  2  0  0  0
 35 43  1  0  0  0
 36 50  1  0  0  0
 39 40  1  0  0  0
 39 45  1  0  0  0
 40 41  2  0  0  0
 41 42  1  0  0  0
 42 43  2  0  0  0
 43 44  1  0  0  0
M  END
>  <CHROM.0>
-51.41448383,-171.64018123,144.40874677

>  <CHROM.1>
49.54456593,77.30640945,36.74887448,-56.66476320,-165.14490764,-57.10194023
-175.00729111,100.56427526,-141.35636403,-157.91604038,-61.81524966,-56.43642051
-66.14688186,2.87529417,-134.74426845,-97.46206101,-49.16496004,-2.77424490
18.23916366,-0.28506520,-0.57643169,-1.70273529

>  <Name>
Lopinavir.pdb

>  <RI>
-1.61344e+08

>  <Rbt.Current_Directory>
/root/miniconda3/envs/rdock/share/rxdock-2013.1.1_148c5bd1-0/data/ligands/prepped_ligands/Lopinavir

>  <Rbt.Executable>
rbdock/0.1.0

>  <Rbt.Library>
librxdock.so/0.1.0

>  <Rbt.Parameter_File>
/root/miniconda3/envs/rdock/share/rxdock-2013.1.1_148c5bd1-0/data/scripts/dock.prm

>  <Rbt.Receptor>
def.prm

>  <SCORE>
5.54061

>  <SCORE.INTER>
-6.02768

>  <SCORE.INTER.CONST>
1

>  <SCORE.INTER.POLAR>
-0.724205

>  <SCORE.INTER.REPUL>
0

>  <SCORE.INTER.ROT>
15

>  <SCORE.INTER.VDW>
-23.9654

>  <SCORE.INTER.norm>
-0.131036

>  <SCORE.INTRA>
9.99111

>  <SCORE.INTRA.DIHEDRAL>
8.25112

>  <SCORE.INTRA.DIHEDRAL.0>
17.6555

>  <SCORE.INTRA.POLAR>
-0.0262703

>  <SCORE.INTRA.POLAR.0>
-0.227187

>  <SCORE.INTRA.REPUL>
0

>  <SCORE.INTRA.REPUL.0>
0

>  <SCORE.INTRA.VDW>
5.95487

>  <SCORE.INTRA.VDW.0>
-8.98636

>  <SCORE.INTRA.norm>
0.217198

>  <SCORE.RESTR>
0.901507

>  <SCORE.RESTR.CAVITY>
0.901507

>  <SCORE.RESTR.norm>
0.019598

>  <SCORE.SYSTEM>
0.675673

>  <SCORE.SYSTEM.CONST>
0

>  <SCORE.SYSTEM.DIHEDRAL>
2.84653

>  <SCORE.SYSTEM.VDW>
-0.747593

>  <SCORE.SYSTEM.norm>
0.0146886

>  <SCORE.heavy>
46

>  <SCORE.norm>
0.120448

$$$$
Lopinavir.pdb
  RxDock  02242111043D
librxdock.so/0.1.0
 50 53  0  0  0  0  0  0  0  0999 V2000
  -49.3984   -9.1231   20.5208 C   0  0  0  0  0  0
  -51.4858   -7.8341   19.9948 C   0  0  0  0  0  0
  -50.6761   -6.5639   20.0920 N   0  0  0  0  0  0
  -49.3199   -6.5944   20.3870 C   0  0  0  0  0  0
  -48.7308   -7.8080   20.5849 N   0  0  0  0  0  0
  -48.7590   -0.4386   15.7258 C   0  0  0  0  0  0
  -50.1088   -0.3838   15.3011 C   0  0  0  0  0  0
  -50.4352   -0.2226   13.9319 C   0  0  0  0  0  0
  -49.4119   -0.1131   12.9715 C   0  0  0  0  0  0
  -48.0621   -0.1657   13.3833 C   0  0  0  0  0  0
  -47.7362   -0.3272   14.7501 C   0  0  0  0  0  0
  -48.6529   -5.5778   20.4730 O   0  0  0  0  0  0
  -51.3424   -5.2327   19.8743 C   0  0  0  0  0  0
  -50.6216   -4.4831   18.7206 C   0  0  0  0  0  0
  -50.2842   -5.3099   17.6825 N   0  0  0  0  0  0
  -49.5924   -4.8758   16.4487 C   0  0  0  0  0  0
  -51.3982   -4.3770   21.2011 C   0  0  0  0  0  0
  -52.7526   -3.6768   21.4237 C   0  0  0  0  0  0
  -51.0933   -5.2562   22.4361 C   0  0  0  0  0  0
  -50.3956   -3.2730   18.7747 O   0  0  0  0  0  0
  -54.0353   -4.2066   16.5525 C   0  0  0  0  0  0
  -54.8090   -5.2196   15.9370 C   0  0  0  0  0  0
  -54.1835   -6.1622   15.0881 C   0  0  0  0  0  0
  -52.7905   -6.0874   14.8600 C   0  0  0  0  0  0
  -52.0064   -5.0728   15.4735 C   0  0  0  0  0  0
  -52.6408   -4.1350   16.3206 C   0  0  0  0  0  0
  -50.5267   -5.0041   15.2232 C   0  0  0  0  0  0
  -49.1791   -3.3898   16.5245 C   0  0  0  0  0  0
  -47.6961   -3.0144   16.6990 C   0  0  0  0  0  0
  -47.3845   -1.7253   17.5016 C   0  0  0  0  0  0
  -46.0453   -1.2387   17.0956 N   0  0  0  0  0  0
  -45.2928   -0.3586   17.8296 C   0  0  0  0  0  0
  -43.9435    0.0192   17.1872 C   0  0  0  0  0  0
  -42.8295   -0.3660   18.0134 O   0  0  0  0  0  0
  -42.8809    0.1527   19.3215 C   0  0  0  0  0  0
  -47.1067   -4.0883   17.3919 O   0  0  0  0  0  0
  -48.4357   -0.6174   17.1965 C   0  0  0  0  0  0
  -45.6304    0.1303   18.9132 O   0  0  0  0  0  0
  -42.7798    1.5640   19.5812 C   0  0  0  0  0  0
  -42.8405    2.0262   20.9234 C   0  0  0  0  0  0
  -43.0003    1.1222   21.9947 C   0  0  0  0  0  0
  -43.1033   -0.2620   21.7501 C   0  0  0  0  0  0
  -43.0463   -0.7586   20.4257 C   0  0  0  0  0  0
  -43.1610   -2.2282   20.2023 C   0  0  0  0  0  0
  -42.6113    2.5795   18.4759 C   0  0  0  0  0  0
  -50.6524   -9.0834   19.6397 C   0  0  0  0  0  0
  -47.7352   -7.7276   20.7919 H   0  0  0  0  0  0
  -50.5570   -6.2810   17.8331 H   0  0  0  0  0  0
  -45.5995   -1.5385   16.2285 H   0  0  0  0  0  0
  -46.1738   -3.9058   17.4086 H   0  0  0  0  0  0
  1  5  1  0  0  0
  1 46  1  0  0  0
  2  3  1  0  0  0
  2 46  1  0  0  0
  3  4  1  0  0  0
  3 13  1  0  0  0
  4  5  1  0  0  0
  4 12  2  0  0  0
  5 47  1  0  0  0
  6  7  2  0  0  0
  6 11  1  0  0  0
  6 37  1  0  0  0
  7  8  1  0  0  0
  8  9  2  0  0  0
  9 10  1  0  0  0
 10 11  2  0  0  0
 13 14  1  0  0  0
 13 17  1  0  0  0
 14 15  1  0  0  0
 14 20  2  0  0  0
 15 16  1  0  0  0
 15 48  1  0  0  0
 16 27  1  0  0  0
 16 28  1  0  0  0
 17 18  1  0  0  0
 17 19  1  0  0  0
 21 22  2  0  0  0
 21 26  1  0  0  0
 22 23  1  0  0  0
 23 24  2  0  0  0
 24 25  1  0  0  0
 25 26  2  0  0  0
 25 27  1  0  0  0
 28 29  1  0  0  0
 29 30  1  0  0  0
 29 36  1  0  0  0
 30 31  1  0  0  0
 30 37  1  0  0  0
 31 32  1  0  0  0
 31 49  1  0  0  0
 32 33  1  0  0  0
 32 38  2  0  0  0
 33 34  1  0  0  0
 34 35  1  0  0  0
 35 39  2  0  0  0
 35 43  1  0  0  0
 36 50  1  0  0  0
 39 40  1  0  0  0
 39 45  1  0  0  0
 40 41  2  0  0  0
 41 42  1  0  0  0
 42 43  2  0  0  0
 43 44  1  0  0  0
M  END
>  <CHROM.0>
-47.23321790,63.87551008,-54.29605070

>  <CHROM.1>
-122.78636032,131.45068053,40.67756637,-136.94427557,-112.99835221,19.80392221
107.66810164,-130.81194247,-147.71595054,-156.77771437,173.41941345,-161.48995126
-45.53401200,-118.72389605,-55.50133167,-65.79680001,-48.42878946,-3.02224511
18.10941675,-2.82192186,-0.60371540,-0.89657421

>  <Name>
Lopinavir.pdb

>  <RI>
-1.61344e+08

>  <Rbt.Current_Directory>
/root/miniconda3/envs/rdock/share/rxdock-2013.1.1_148c5bd1-0/data/ligands/prepped_ligands/Lopinavir

>  <Rbt.Executable>
rbdock/0.1.0

>  <Rbt.Library>
librxdock.so/0.1.0

>  <Rbt.Parameter_File>
/root/miniconda3/envs/rdock/share/rxdock-2013.1.1_148c5bd1-0/data/scripts/dock.prm

>  <Rbt.Receptor>
def.prm

>  <SCORE>
11.9564

>  <SCORE.INTER>
-2.80262

>  <SCORE.INTER.CONST>
1

>  <SCORE.INTER.POLAR>
-0.566587

>  <SCORE.INTER.REPUL>
0.241385

>  <SCORE.INTER.ROT>
15

>  <SCORE.INTER.VDW>
-22.4832

>  <SCORE.INTER.norm>
-0.0609265

>  <SCORE.INTRA>
14.9392

>  <SCORE.INTRA.DIHEDRAL>
14.0582

>  <SCORE.INTRA.DIHEDRAL.0>
17.6555

>  <SCORE.INTRA.POLAR>
0.227187

>  <SCORE.INTRA.POLAR.0>
-0.227187

>  <SCORE.INTRA.REPUL>
0

>  <SCORE.INTRA.REPUL.0>
0

>  <SCORE.INTRA.VDW>
7.13764

>  <SCORE.INTRA.VDW.0>
-8.98636

>  <SCORE.INTRA.norm>
0.324765

>  <SCORE.RESTR>
0.539081

>  <SCORE.RESTR.CAVITY>
0.539081

>  <SCORE.RESTR.norm>
0.0117192

>  <SCORE.SYSTEM>
-0.719194

>  <SCORE.SYSTEM.CONST>
0

>  <SCORE.SYSTEM.DIHEDRAL>
0.5278

>  <SCORE.SYSTEM.POLAR>
-0.0125812

>  <SCORE.SYSTEM.VDW>
-0.940319

>  <SCORE.SYSTEM.norm>
-0.0156347

>  <SCORE.heavy>
46

>  <SCORE.norm>
0.259923

$$$$
Lopinavir.pdb
  RxDock  02242111053D
librxdock.so/0.1.0
 50 53  0  0  0  0  0  0  0  0999 V2000
  -45.3416    1.6602   18.7756 C   0  0  0  0  0  0
  -47.8210    1.5039   18.4238 C   0  0  0  0  0  0
  -47.7043    0.0053   18.5629 N   0  0  0  0  0  0
  -46.4779   -0.6041   18.7907 C   0  0  0  0  0  0
  -45.3732    0.1887   18.8905 N   0  0  0  0  0  0
  -54.5147   -6.1296   15.3567 C   0  0  0  0  0  0
  -54.0037   -7.1052   16.2468 C   0  0  0  0  0  0
  -54.3948   -8.4628   16.1414 C   0  0  0  0  0  0
  -55.3044   -8.8588   15.1426 C   0  0  0  0  0  0
  -55.8212   -7.8945   14.2497 C   0  0  0  0  0  0
  -55.4304   -6.5392   14.3546 C   0  0  0  0  0  0
  -46.3662   -1.8129   18.9013 O   0  0  0  0  0  0
  -48.9328   -0.8554   18.4465 C   0  0  0  0  0  0
  -49.5934   -0.6182   17.0610 C   0  0  0  0  0  0
  -49.5444   -1.7246   16.2556 N   0  0  0  0  0  0
  -50.0950   -1.7948   14.8840 C   0  0  0  0  0  0
  -49.9394   -0.6109   19.6392 C   0  0  0  0  0  0
  -49.3030   -0.8032   21.0292 C   0  0  0  0  0  0
  -50.5405    0.8121   19.5690 C   0  0  0  0  0  0
  -50.0952    0.4658   16.7586 O   0  0  0  0  0  0
  -45.4857   -0.3379   14.8806 C   0  0  0  0  0  0
  -44.8512   -1.5976   14.9990 C   0  0  0  0  0  0
  -45.5839   -2.7794   14.7406 C   0  0  0  0  0  0
  -46.9442   -2.6957   14.3656 C   0  0  0  0  0  0
  -47.5891   -1.4346   14.2453 C   0  0  0  0  0  0
  -46.8483   -0.2587   14.5055 C   0  0  0  0  0  0
  -49.0354   -1.3588   13.8457 C   0  0  0  0  0  0
  -50.5000   -3.2374   14.5100 C   0  0  0  0  0  0
  -51.9888   -3.6260   14.4551 C   0  0  0  0  0  0
  -52.5385   -4.4801   15.6262 C   0  0  0  0  0  0
  -52.2642   -3.7617   16.8926 N   0  0  0  0  0  0
  -52.5620   -4.2562   18.1361 C   0  0  0  0  0  0
  -52.2054   -3.3123   19.3015 C   0  0  0  0  0  0
  -51.9419   -4.0369   20.5171 O   0  0  0  0  0  0
  -51.1871   -5.2110   20.3313 C   0  0  0  0  0  0
  -52.7028   -2.4132   14.4541 O   0  0  0  0  0  0
  -54.0762   -4.6837   15.4867 C   0  0  0  0  0  0
  -53.0861   -5.3535   18.3556 O   0  0  0  0  0  0
  -49.9317   -5.2012   19.6290 C   0  0  0  0  0  0
  -49.2156   -6.4186   19.4757 C   0  0  0  0  0  0
  -49.7183   -7.6266   20.0035 C   0  0  0  0  0  0
  -50.9459   -7.6459   20.6957 C   0  0  0  0  0  0
  -51.6870   -6.4520   20.8671 C   0  0  0  0  0  0
  -52.9805   -6.5075   21.6065 C   0  0  0  0  0  0
  -49.3416   -3.9392   19.0454 C   0  0  0  0  0  0
  -46.6947    2.2886   19.1288 C   0  0  0  0  0  0
  -44.5232   -0.3489   19.0611 H   0  0  0  0  0  0
  -49.0825   -2.5226   16.6914 H   0  0  0  0  0  0
  -51.8289   -2.8394   16.9093 H   0  0  0  0  0  0
  -52.5235   -2.0070   13.6134 H   0  0  0  0  0  0
  1  5  1  0  0  0
  1 46  1  0  0  0
  2  3  1  0  0  0
  2 46  1  0  0  0
  3  4  1  0  0  0
  3 13  1  0  0  0
  4  5  1  0  0  0
  4 12  2  0  0  0
  5 47  1  0  0  0
  6  7  2  0  0  0
  6 11  1  0  0  0
  6 37  1  0  0  0
  7  8  1  0  0  0
  8  9  2  0  0  0
  9 10  1  0  0  0
 10 11  2  0  0  0
 13 14  1  0  0  0
 13 17  1  0  0  0
 14 15  1  0  0  0
 14 20  2  0  0  0
 15 16  1  0  0  0
 15 48  1  0  0  0
 16 27  1  0  0  0
 16 28  1  0  0  0
 17 18  1  0  0  0
 17 19  1  0  0  0
 21 22  2  0  0  0
 21 26  1  0  0  0
 22 23  1  0  0  0
 23 24  2  0  0  0
 24 25  1  0  0  0
 25 26  2  0  0  0
 25 27  1  0  0  0
 28 29  1  0  0  0
 29 30  1  0  0  0
 29 36  1  0  0  0
 30 31  1  0  0  0
 30 37  1  0  0  0
 31 32  1  0  0  0
 31 49  1  0  0  0
 32 33  1  0  0  0
 32 38  2  0  0  0
 33 34  1  0  0  0
 34 35  1  0  0  0
 35 39  2  0  0  0
 35 43  1  0  0  0
 36 50  1  0  0  0
 39 40  1  0  0  0
 39 45  1  0  0  0
 40 41  2  0  0  0
 41 42  1  0  0  0
 42 43  2  0  0  0
 43 44  1  0  0  0
M  END
>  <CHROM.0>
-55.04326796,176.46303895,-43.69067192

>  <CHROM.1>
58.30507339,47.61222539,113.79534936,-55.28953050,89.23896435,21.84217918
106.00060824,72.36699669,-104.86610717,55.89496481,68.88658124,-176.98757255
119.24236398,-153.12881907,41.23107037,52.76992535,-50.17894413,-3.09273366
17.37253268,-0.07004416,0.77336505,1.75360476

>  <Name>
Lopinavir.pdb

>  <RI>
-1.61344e+08

>  <Rbt.Current_Directory>
/root/miniconda3/envs/rdock/share/rxdock-2013.1.1_148c5bd1-0/data/ligands/prepped_ligands/Lopinavir

>  <Rbt.Executable>
rbdock/0.1.0

>  <Rbt.Library>
librxdock.so/0.1.0

>  <Rbt.Parameter_File>
/root/miniconda3/envs/rdock/share/rxdock-2013.1.1_148c5bd1-0/data/scripts/dock.prm

>  <Rbt.Receptor>
def.prm

>  <SCORE>
-1.65024

>  <SCORE.INTER>
-14.5041

>  <SCORE.INTER.CONST>
1

>  <SCORE.INTER.POLAR>
-1.14626

>  <SCORE.INTER.REPUL>
0

>  <SCORE.INTER.ROT>
15

>  <SCORE.INTER.VDW>
-31.0068

>  <SCORE.INTER.norm>
-0.315306

>  <SCORE.INTRA>
13.4604

>  <SCORE.INTRA.DIHEDRAL>
16.7581

>  <SCORE.INTRA.DIHEDRAL.0>
17.6555

>  <SCORE.INTRA.POLAR>
0.227187

>  <SCORE.INTRA.POLAR.0>
-0.227187

>  <SCORE.INTRA.REPUL>
0

>  <SCORE.INTRA.REPUL.0>
0

>  <SCORE.INTRA.VDW>
4.30892

>  <SCORE.INTRA.VDW.0>
-8.98636

>  <SCORE.INTRA.norm>
0.292617

>  <SCORE.RESTR>
0.00594889

>  <SCORE.RESTR.CAVITY>
0.00594889

>  <SCORE.RESTR.norm>
0.000129324

>  <SCORE.SYSTEM>
-0.612534

>  <SCORE.SYSTEM.CONST>
0

>  <SCORE.SYSTEM.DIHEDRAL>
0.724022

>  <SCORE.SYSTEM.POLAR>
-0.0201198

>  <SCORE.SYSTEM.VDW>
-0.906137

>  <SCORE.SYSTEM.norm>
-0.013316

>  <SCORE.heavy>
46

>  <SCORE.norm>
-0.0358748

$$$$
Lopinavir.pdb
  RxDock  02242111053D
librxdock.so/0.1.0
 50 53  0  0  0  0  0  0  0  0999 V2000
  -41.4503    1.1099   19.6160 C   0  0  0  0  0  0
  -43.0450   -0.7850   20.0185 C   0  0  0  0  0  0
  -44.1598    0.2283   20.1133 N   0  0  0  0  0  0
  -43.9135    1.5868   19.9681 C   0  0  0  0  0  0
  -42.6317    1.9875   19.7323 N   0  0  0  0  0  0
  -50.7790   -6.3816   20.6336 C   0  0  0  0  0  0
  -52.0394   -5.9000   21.0636 C   0  0  0  0  0  0
  -53.0315   -6.7881   21.5475 C   0  0  0  0  0  0
  -52.7725   -8.1706   21.6051 C   0  0  0  0  0  0
  -51.5194   -8.6625   21.1782 C   0  0  0  0  0  0
  -50.5287   -7.7759   20.6956 C   0  0  0  0  0  0
  -44.8017    2.4179   20.0459 O   0  0  0  0  0  0
  -45.5681   -0.2304   20.3776 C   0  0  0  0  0  0
  -46.4235   -0.0165   19.0989 C   0  0  0  0  0  0
  -47.5366   -0.8135   19.0681 N   0  0  0  0  0  0
  -48.5360   -0.8252   17.9770 C   0  0  0  0  0  0
  -46.1930    0.4816   21.6417 C   0  0  0  0  0  0
  -47.1940    1.5975   21.2857 C   0  0  0  0  0  0
  -46.9068   -0.5432   22.5537 C   0  0  0  0  0  0
  -46.0984    0.7932   18.2289 O   0  0  0  0  0  0
  -48.6738    0.1214   13.0803 C   0  0  0  0  0  0
  -50.0673   -0.1168   13.0100 C   0  0  0  0  0  0
  -50.7393   -0.6822   14.1186 C   0  0  0  0  0  0
  -50.0162   -1.0053   15.2893 C   0  0  0  0  0  0
  -48.6164   -0.7701   15.3678 C   0  0  0  0  0  0
  -47.9534   -0.2044   14.2543 C   0  0  0  0  0  0
  -47.8591   -1.1177   16.6178 C   0  0  0  0  0  0
  -49.5879   -1.9365   18.1850 C   0  0  0  0  0  0
  -49.1788   -3.2654   18.8461 C   0  0  0  0  0  0
  -50.3045   -4.0982   19.5114 C   0  0  0  0  0  0
  -51.2973   -4.4511   18.4699 N   0  0  0  0  0  0
  -52.6073   -4.0471   18.4891 C   0  0  0  0  0  0
  -53.4529   -4.5635   17.3083 C   0  0  0  0  0  0
  -52.7305   -5.5175   16.5081 O   0  0  0  0  0  0
  -53.4880   -6.6460   16.1403 C   0  0  0  0  0  0
  -48.6309   -4.0540   17.8173 O   0  0  0  0  0  0
  -49.7317   -5.4100   20.1249 C   0  0  0  0  0  0
  -53.1184   -3.3410   19.3650 O   0  0  0  0  0  0
  -54.5305   -6.5693   15.1520 C   0  0  0  0  0  0
  -55.2587   -7.7439   14.8224 C   0  0  0  0  0  0
  -54.9699   -8.9751   15.4477 C   0  0  0  0  0  0
  -53.9484   -9.0610   16.4150 C   0  0  0  0  0  0
  -53.2026   -7.9110   16.7690 C   0  0  0  0  0  0
  -52.1274   -8.0377   17.7941 C   0  0  0  0  0  0
  -54.8826   -5.2809   14.4466 C   0  0  0  0  0  0
  -41.8354   -0.3104   19.1860 C   0  0  0  0  0  0
  -42.5524    3.0000   19.6371 H   0  0  0  0  0  0
  -47.6243   -1.4184   19.8844 H   0  0  0  0  0  0
  -51.0555   -5.0267   17.6632 H   0  0  0  0  0  0
  -47.8395   -3.6060   17.5402 H   0  0  0  0  0  0
  1  5  1  0  0  0
  1 46  1  0  0  0
  2  3  1  0  0  0
  2 46  1  0  0  0
  3  4  1  0  0  0
  3 13  1  0  0  0
  4  5  1  0  0  0
  4 12  2  0  0  0
  5 47  1  0  0  0
  6  7  2  0  0  0
  6 11  1  0  0  0
  6 37  1  0  0  0
  7  8  1  0  0  0
  8  9  2  0  0  0
  9 10  1  0  0  0
 10 11  2  0  0  0
 13 14  1  0  0  0
 13 17  1  0  0  0
 14 15  1  0  0  0
 14 20  2  0  0  0
 15 16  1  0  0  0
 15 48  1  0  0  0
 16 27  1  0  0  0
 16 28  1  0  0  0
 17 18  1  0  0  0
 17 19  1  0  0  0
 21 22  2  0  0  0
 21 26  1  0  0  0
 22 23  1  0  0  0
 23 24  2  0  0  0
 24 25  1  0  0  0
 25 26  2  0  0  0
 25 27  1  0  0  0
 28 29  1  0  0  0
 29 30  1  0  0  0
 29 36  1  0  0  0
 30 31  1  0  0  0
 30 37  1  0  0  0
 31 32  1  0  0  0
 31 49  1  0  0  0
 32 33  1  0  0  0
 32 38  2  0  0  0
 33 34  1  0  0  0
 34 35  1  0  0  0
 35 39  2  0  0  0
 35 43  1  0  0  0
 36 50  1  0  0  0
 39 40  1  0  0  0
 39 45  1  0  0  0
 40 41  2  0  0  0
 41 42  1  0  0  0
 42 43  2  0  0  0
 43 44  1  0  0  0
M  END
>  <CHROM.0>
179.66004380,62.12996572,59.98740294

>  <CHROM.1>
-110.27245485,-26.86363554,157.94600017,103.44793371,56.16424836,-162.08337252
-33.63869030,-39.82577063,157.30360145,60.48429467,65.39362235,-117.74229143
-172.12145419,7.58842922,136.22801102,72.68937143,-49.35933552,-3.00638251
18.27459634,-0.19738804,0.72050363,2.12196323

>  <Name>
Lopinavir.pdb

>  <RI>
-1.61344e+08

>  <Rbt.Current_Directory>
/root/miniconda3/envs/rdock/share/rxdock-2013.1.1_148c5bd1-0/data/ligands/prepped_ligands/Lopinavir

>  <Rbt.Executable>
rbdock/0.1.0

>  <Rbt.Library>
librxdock.so/0.1.0

>  <Rbt.Parameter_File>
/root/miniconda3/envs/rdock/share/rxdock-2013.1.1_148c5bd1-0/data/scripts/dock.prm

>  <Rbt.Receptor>
def.prm

>  <SCORE>
4.23953

>  <SCORE.INTER>
-4.90916

>  <SCORE.INTER.CONST>
1

>  <SCORE.INTER.POLAR>
0

>  <SCORE.INTER.REPUL>
0

>  <SCORE.INTER.ROT>
15

>  <SCORE.INTER.VDW>
-25.3092

>  <SCORE.INTER.norm>
-0.106721

>  <SCORE.INTRA>
10.1374

>  <SCORE.INTRA.DIHEDRAL>
10.8675

>  <SCORE.INTRA.DIHEDRAL.0>
17.6555

>  <SCORE.INTRA.POLAR>
-0.0182787

>  <SCORE.INTRA.POLAR.0>
-0.227187

>  <SCORE.INTRA.REPUL>
0

>  <SCORE.INTRA.REPUL.0>
0

>  <SCORE.INTRA.VDW>
4.7658

>  <SCORE.INTRA.VDW.0>
-8.98636

>  <SCORE.INTRA.norm>
0.220378

>  <SCORE.RESTR>
0.00679715

>  <SCORE.RESTR.CAVITY>
0.00679715

>  <SCORE.RESTR.norm>
0.000147764

>  <SCORE.SYSTEM>
-0.995501

>  <SCORE.SYSTEM.CONST>
0

>  <SCORE.SYSTEM.DIHEDRAL>
0.0231129

>  <SCORE.SYSTEM.POLAR>
-0.00102524

>  <SCORE.SYSTEM.VDW>
-1.00357

>  <SCORE.SYSTEM.norm>
-0.0216413

>  <SCORE.heavy>
46

>  <SCORE.norm>
0.0921638

$$$$
Lopinavir.pdb
  RxDock  02242111053D
librxdock.so/0.1.0
 50 53  0  0  0  0  0  0  0  0999 V2000
  -48.1888   -2.7217   13.4828 C   0  0  0  0  0  0
  -50.1186   -4.2824   13.8518 C   0  0  0  0  0  0
  -50.7608   -3.2187   14.7090 N   0  0  0  0  0  0
  -50.1400   -1.9964   14.9268 C   0  0  0  0  0  0
  -48.9288   -1.7755   14.3410 N   0  0  0  0  0  0
  -49.7198    0.7065   18.1113 C   0  0  0  0  0  0
  -50.2085    2.0355   18.1124 C   0  0  0  0  0  0
  -51.5430    2.3201   18.4938 C   0  0  0  0  0  0
  -52.4045    1.2750   18.8777 C   0  0  0  0  0  0
  -51.9284   -0.0545   18.8797 C   0  0  0  0  0  0
  -50.5960   -0.3386   18.4995 C   0  0  0  0  0  0
  -50.6433   -1.1287   15.6194 O   0  0  0  0  0  0
  -52.0961   -3.4800   15.3511 C   0  0  0  0  0  0
  -52.0011   -3.1731   16.8707 C   0  0  0  0  0  0
  -50.8883   -3.7199   17.4519 N   0  0  0  0  0  0
  -50.5341   -3.5912   18.8827 C   0  0  0  0  0  0
  -52.6101   -4.9467   15.0678 C   0  0  0  0  0  0
  -52.0692   -5.9901   16.0643 C   0  0  0  0  0  0
  -54.1552   -5.0025   15.0916 C   0  0  0  0  0  0
  -52.8581   -2.5058   17.4526 O   0  0  0  0  0  0
  -48.0623   -6.9508   17.2658 C   0  0  0  0  0  0
  -47.2905   -7.6693   18.2100 C   0  0  0  0  0  0
  -47.5458   -7.5099   19.5920 C   0  0  0  0  0  0
  -48.5697   -6.6353   20.0216 C   0  0  0  0  0  0
  -49.3489   -5.9094   19.0800 C   0  0  0  0  0  0
  -49.0862   -6.0754   17.7005 C   0  0  0  0  0  0
  -50.4345   -4.9829   19.5493 C   0  0  0  0  0  0
  -49.1538   -2.9234   19.0662 C   0  0  0  0  0  0
  -48.5376   -2.1078   17.9148 C   0  0  0  0  0  0
  -47.6805   -0.8757   18.3029 C   0  0  0  0  0  0
  -46.3181   -1.0669   17.7531 N   0  0  0  0  0  0
  -45.9702   -0.8028   16.4536 C   0  0  0  0  0  0
  -44.4980   -1.1059   16.1118 C   0  0  0  0  0  0
  -43.5959   -0.2043   16.7793 O   0  0  0  0  0  0
  -43.5285   -0.3903   18.1735 C   0  0  0  0  0  0
  -47.6964   -2.9974   17.2207 O   0  0  0  0  0  0
  -48.2857    0.4284   17.7042 C   0  0  0  0  0  0
  -46.7392   -0.3717   15.5877 O   0  0  0  0  0  0
  -43.3196   -1.6893   18.7551 C   0  0  0  0  0  0
  -43.2590   -1.8121   20.1692 C   0  0  0  0  0  0
  -43.3980   -0.6816   21.0015 C   0  0  0  0  0  0
  -43.6001    0.5957   20.4411 C   0  0  0  0  0  0
  -43.6664    0.7559   19.0361 C   0  0  0  0  0  0
  -43.8787    2.1214   18.4764 C   0  0  0  0  0  0
  -43.1604   -2.9349   17.9157 C   0  0  0  0  0  0
  -49.1251   -3.7308   12.8077 C   0  0  0  0  0  0
  -48.5557   -0.8508   14.5563 H   0  0  0  0  0  0
  -50.3040   -4.2403   16.7977 H   0  0  0  0  0  0
  -45.5468   -1.4130   18.3240 H   0  0  0  0  0  0
  -47.0578   -3.3004   17.8565 H   0  0  0  0  0  0
  1  5  1  0  0  0
  1 46  1  0  0  0
  2  3  1  0  0  0
  2 46  1  0  0  0
  3  4  1  0  0  0
  3 13  1  0  0  0
  4  5  1  0  0  0
  4 12  2  0  0  0
  5 47  1  0  0  0
  6  7  2  0  0  0
  6 11  1  0  0  0
  6 37  1  0  0  0
  7  8  1  0  0  0
  8  9  2  0  0  0
  9 10  1  0  0  0
 10 11  2  0  0  0
 13 14  1  0  0  0
 13 17  1  0  0  0
 14 15  1  0  0  0
 14 20  2  0  0  0
 15 16  1  0  0  0
 15 48  1  0  0  0
 16 27  1  0  0  0
 16 28  1  0  0  0
 17 18  1  0  0  0
 17 19  1  0  0  0
 21 22  2  0  0  0
 21 26  1  0  0  0
 22 23  1  0  0  0
 23 24  2  0  0  0
 24 25  1  0  0  0
 25 26  2  0  0  0
 25 27  1  0  0  0
 28 29  1  0  0  0
 29 30  1  0  0  0
 29 36  1  0  0  0
 30 31  1  0  0  0
 30 37  1  0  0  0
 31 32  1  0  0  0
 31 49  1  0  0  0
 32 33  1  0  0  0
 32 38  2  0  0  0
 33 34  1  0  0  0
 34 35  1  0  0  0
 35 39  2  0  0  0
 35 43  1  0  0  0
 36 50  1  0  0  0
 39 40  1  0  0  0
 39 45  1  0  0  0
 40 41  2  0  0  0
 41 42  1  0  0  0
 42 43  2  0  0  0
 43 44  1  0  0  0
M  END
>  <CHROM.0>
157.38030551,-63.98791765,-61.75764682

>  <CHROM.1>
128.06987503,154.60344088,-46.67413057,85.50152281,120.75391694,65.11848591
18.81522976,135.53796392,146.10816785,120.93632125,-59.14152575,81.28133440
57.37548786,-68.14275153,69.33276867,49.83488629,-48.45137876,-2.33173746
17.35994703,-2.67696253,-0.29195508,0.01997494

>  <Name>
Lopinavir.pdb

>  <RI>
-1.61344e+08

>  <Rbt.Current_Directory>
/root/miniconda3/envs/rdock/share/rxdock-2013.1.1_148c5bd1-0/data/ligands/prepped_ligands/Lopinavir

>  <Rbt.Executable>
rbdock/0.1.0

>  <Rbt.Library>
librxdock.so/0.1.0

>  <Rbt.Parameter_File>
/root/miniconda3/envs/rdock/share/rxdock-2013.1.1_148c5bd1-0/data/scripts/dock.prm

>  <Rbt.Receptor>
def.prm

>  <SCORE>
5.46995

>  <SCORE.INTER>
-7.38668

>  <SCORE.INTER.CONST>
1

>  <SCORE.INTER.POLAR>
0

>  <SCORE.INTER.REPUL>
0

>  <SCORE.INTER.ROT>
15

>  <SCORE.INTER.VDW>
-27.7867

>  <SCORE.INTER.norm>
-0.16058

>  <SCORE.INTRA>
12.3944

>  <SCORE.INTRA.DIHEDRAL>
9.73783

>  <SCORE.INTRA.DIHEDRAL.0>
17.6555

>  <SCORE.INTRA.POLAR>
-0.159037

>  <SCORE.INTRA.POLAR.0>
-0.227187

>  <SCORE.INTRA.REPUL>
0

>  <SCORE.INTRA.REPUL.0>
0

>  <SCORE.INTRA.VDW>
8.06621

>  <SCORE.INTRA.VDW.0>
-8.98636

>  <SCORE.INTRA.norm>
0.269443

>  <SCORE.RESTR>
0.749823

>  <SCORE.RESTR.CAVITY>
0.749823

>  <SCORE.RESTR.norm>
0.0163005

>  <SCORE.SYSTEM>
-0.287588

>  <SCORE.SYSTEM.CONST>
0

>  <SCORE.SYSTEM.DIHEDRAL>
1.22207

>  <SCORE.SYSTEM.VDW>
-0.898624

>  <SCORE.SYSTEM.norm>
-0.00625192

>  <SCORE.heavy>
46

>  <SCORE.norm>
0.118912

$$$$
Lopinavir.pdb
  RxDock  02242111053D
librxdock.so/0.1.0
 50 53  0  0  0  0  0  0  0  0999 V2000
  -41.6885    1.7814   19.1797 C   0  0  0  0  0  0
  -44.0913    1.8041   19.9019 C   0  0  0  0  0  0
  -44.0791    0.2957   19.8455 N   0  0  0  0  0  0
  -42.9375   -0.4027   19.4763 C   0  0  0  0  0  0
  -41.8177    0.3109   19.1670 N   0  0  0  0  0  0
  -51.8729   -2.3359   20.1986 C   0  0  0  0  0  0
  -53.2832   -2.4092   20.0939 C   0  0  0  0  0  0
  -53.9901   -3.5431   20.5649 C   0  0  0  0  0  0
  -53.2913   -4.6183   21.1457 C   0  0  0  0  0  0
  -51.8847   -4.5567   21.2547 C   0  0  0  0  0  0
  -51.1789   -3.4245   20.7850 C   0  0  0  0  0  0
  -42.9124   -1.6202   19.4220 O   0  0  0  0  0  0
  -45.3246   -0.4764   20.1865 C   0  0  0  0  0  0
  -46.5066    0.0574   19.3319 C   0  0  0  0  0  0
  -46.6439   -0.6099   18.1441 N   0  0  0  0  0  0
  -47.6818   -0.3220   17.1296 C   0  0  0  0  0  0
  -45.6387   -0.4356   21.7342 C   0  0  0  0  0  0
  -46.9172   -1.2033   22.1217 C   0  0  0  0  0  0
  -44.4573   -1.0091   22.5507 C   0  0  0  0  0  0
  -47.2193    0.9854   19.7183 O   0  0  0  0  0  0
  -49.6258   -3.2150   13.7590 C   0  0  0  0  0  0
  -50.4928   -2.2758   13.1511 C   0  0  0  0  0  0
  -50.3135   -0.8944   13.3958 C   0  0  0  0  0  0
  -49.2700   -0.4602   14.2447 C   0  0  0  0  0  0
  -48.3954   -1.3970   14.8597 C   0  0  0  0  0  0
  -48.5826   -2.7759   14.6090 C   0  0  0  0  0  0
  -47.2899   -0.9229   15.7598 C   0  0  0  0  0  0
  -49.0367   -0.9580   17.5099 C   0  0  0  0  0  0
  -50.3175   -0.1038   17.4888 C   0  0  0  0  0  0
  -51.5453   -0.6542   18.2587 C   0  0  0  0  0  0
  -52.0713   -1.8239   17.5169 N   0  0  0  0  0  0
  -51.4217   -3.0273   17.4198 C   0  0  0  0  0  0
  -52.1571   -4.0840   16.5721 C   0  0  0  0  0  0
  -51.9376   -5.4173   17.0684 O   0  0  0  0  0  0
  -52.8376   -6.3729   16.5590 C   0  0  0  0  0  0
  -49.9705    1.1240   18.0829 O   0  0  0  0  0  0
  -51.1398   -1.1089   19.6920 C   0  0  0  0  0  0
  -50.3301   -3.2872   17.9373 O   0  0  0  0  0  0
  -52.8675   -7.7239   17.0524 C   0  0  0  0  0  0
  -53.8003   -8.6416   16.4991 C   0  0  0  0  0  0
  -54.6919   -8.2435   15.4808 C   0  0  0  0  0  0
  -54.6722   -6.9214   14.9929 C   0  0  0  0  0  0
  -53.7559   -5.9799   15.5202 C   0  0  0  0  0  0
  -53.7637   -4.5891   14.9831 C   0  0  0  0  0  0
  -51.9407   -8.2071   18.1428 C   0  0  0  0  0  0
  -42.7010    2.4343   20.1280 C   0  0  0  0  0  0
  -41.0327   -0.2888   18.9123 H   0  0  0  0  0  0
  -45.9503   -1.3456   18.0104 H   0  0  0  0  0  0
  -52.9657   -1.7977   17.0271 H   0  0  0  0  0  0
  -50.7443    1.6724   18.0167 H   0  0  0  0  0  0
  1  5  1  0  0  0
  1 46  1  0  0  0
  2  3  1  0  0  0
  2 46  1  0  0  0
  3  4  1  0  0  0
  3 13  1  0  0  0
  4  5  1  0  0  0
  4 12  2  0  0  0
  5 47  1  0  0  0
  6  7  2  0  0  0
  6 11  1  0  0  0
  6 37  1  0  0  0
  7  8  1  0  0  0
  8  9  2  0  0  0
  9 10  1  0  0  0
 10 11  2  0  0  0
 13 14  1  0  0  0
 13 17  1  0  0  0
 14 15  1  0  0  0
 14 20  2  0  0  0
 15 16  1  0  0  0
 15 48  1  0  0  0
 16 27  1  0  0  0
 16 28  1  0  0  0
 17 18  1  0  0  0
 17 19  1  0  0  0
 21 22  2  0  0  0
 21 26  1  0  0  0
 22 23  1  0  0  0
 23 24  2  0  0  0
 24 25  1  0  0  0
 25 26  2  0  0  0
 25 27  1  0  0  0
 28 29  1  0  0  0
 29 30  1  0  0  0
 29 36  1  0  0  0
 30 31  1  0  0  0
 30 37  1  0  0  0
 31 32  1  0  0  0
 31 49  1  0  0  0
 32 33  1  0  0  0
 32 38  2  0  0  0
 33 34  1  0  0  0
 34 35  1  0  0  0
 35 39  2  0  0  0
 35 43  1  0  0  0
 36 50  1  0  0  0
 39 40  1  0  0  0
 39 45  1  0  0  0
 40 41  2  0  0  0
 41 42  1  0  0  0
 42 43  2  0  0  0
 43 44  1  0  0  0
M  END
>  <CHROM.0>
-71.04511433,-178.97817091,50.87187473

>  <CHROM.1>
53.02128419,-48.62555049,90.62376492,179.36946336,161.96857668,147.85787969
129.97478448,69.77207252,-162.58580347,-70.79466928,176.26827424,69.61225892
-144.07999851,-146.76666543,164.66498270,-172.95770321,-49.22393390,-2.27155536
18.05661549,-0.21806918,-0.61477069,-1.48133266

>  <Name>
Lopinavir.pdb

>  <RI>
-1.61344e+08

>  <Rbt.Current_Directory>
/root/miniconda3/envs/rdock/share/rxdock-2013.1.1_148c5bd1-0/data/ligands/prepped_ligands/Lopinavir

>  <Rbt.Executable>
rbdock/0.1.0

>  <Rbt.Library>
librxdock.so/0.1.0

>  <Rbt.Parameter_File>
/root/miniconda3/envs/rdock/share/rxdock-2013.1.1_148c5bd1-0/data/scripts/dock.prm

>  <Rbt.Receptor>
def.prm

>  <SCORE>
15.1874

>  <SCORE.INTER>
-8.27818

>  <SCORE.INTER.CONST>
1

>  <SCORE.INTER.POLAR>
0

>  <SCORE.INTER.REPUL>
0.0127796

>  <SCORE.INTER.ROT>
15

>  <SCORE.INTER.VDW>
-28.7421

>  <SCORE.INTER.norm>
-0.17996

>  <SCORE.INTRA>
24.1983

>  <SCORE.INTRA.DIHEDRAL>
6.56142

>  <SCORE.INTRA.DIHEDRAL.0>
17.6555

>  <SCORE.INTRA.POLAR>
0.227187

>  <SCORE.INTRA.POLAR.0>
-0.227187

>  <SCORE.INTRA.REPUL>
0

>  <SCORE.INTRA.REPUL.0>
0

>  <SCORE.INTRA.VDW>
20.1452

>  <SCORE.INTRA.VDW.0>
-8.98636

>  <SCORE.INTRA.norm>
0.526051

>  <SCORE.RESTR>
0.0313939

>  <SCORE.RESTR.CAVITY>
0.0313939

>  <SCORE.RESTR.norm>
0.000682475

>  <SCORE.SYSTEM>
-0.764157

>  <SCORE.SYSTEM.CONST>
0

>  <SCORE.SYSTEM.DIHEDRAL>
0.514626

>  <SCORE.SYSTEM.VDW>
-1.02147

>  <SCORE.SYSTEM.norm>
-0.0166121

>  <SCORE.heavy>
46

>  <SCORE.norm>
0.330161

$$$$
Lopinavir.pdb
  RxDock  02242111053D
librxdock.so/0.1.0
 50 53  0  0  0  0  0  0  0  0999 V2000
  -47.8557   -0.0155   21.1391 C   0  0  0  0  0  0
  -49.8023   -0.3856   19.5999 C   0  0  0  0  0  0
  -49.8758   -1.8072   20.1024 N   0  0  0  0  0  0
  -48.9872   -2.2807   21.0580 C   0  0  0  0  0  0
  -48.0415   -1.4244   21.5389 N   0  0  0  0  0  0
  -48.6828    0.0099   12.7620 C   0  0  0  0  0  0
  -49.9045    0.5688   13.2096 C   0  0  0  0  0  0
  -50.2927    1.8751   12.8220 C   0  0  0  0  0  0
  -49.4598    2.6378   11.9816 C   0  0  0  0  0  0
  -48.2387    2.0911   11.5296 C   0  0  0  0  0  0
  -47.8513    0.7869   11.9160 C   0  0  0  0  0  0
  -49.0306   -3.4267   21.4712 O   0  0  0  0  0  0
  -50.9232   -2.7403   19.5586 C   0  0  0  0  0  0
  -50.6808   -2.9506   18.0389 C   0  0  0  0  0  0
  -51.0139   -4.2109   17.6199 N   0  0  0  0  0  0
  -50.8920   -4.6970   16.2276 C   0  0  0  0  0  0
  -52.3859   -2.2287   19.8661 C   0  0  0  0  0  0
  -53.4659   -3.3131   19.6878 C   0  0  0  0  0  0
  -52.4833   -1.6735   21.3061 C   0  0  0  0  0  0
  -50.2336   -2.0529   17.3230 O   0  0  0  0  0  0
  -55.7334   -5.2997   15.7312 C   0  0  0  0  0  0
  -55.6728   -6.6391   15.2775 C   0  0  0  0  0  0
  -54.4372   -7.1811   14.8532 C   0  0  0  0  0  0
  -53.2711   -6.3829   14.8853 C   0  0  0  0  0  0
  -53.3235   -5.0367   15.3387 C   0  0  0  0  0  0
  -54.5633   -4.5038   15.7610 C   0  0  0  0  0  0
  -52.0770   -4.1986   15.3682 C   0  0  0  0  0  0
  -49.6111   -4.1615   15.5513 C   0  0  0  0  0  0
  -49.7179   -3.1168   14.4255 C   0  0  0  0  0  0
  -48.8575   -1.8352   14.5685 C   0  0  0  0  0  0
  -47.7243   -2.1363   15.4742 N   0  0  0  0  0  0
  -47.4244   -1.4092   16.5971 C   0  0  0  0  0  0
  -46.1814   -1.9016   17.3643 C   0  0  0  0  0  0
  -46.0407   -1.2429   18.6366 O   0  0  0  0  0  0
  -44.9812   -0.3168   18.6874 C   0  0  0  0  0  0
  -49.2974   -3.7711   13.2526 O   0  0  0  0  0  0
  -48.2924   -1.3926   13.1864 C   0  0  0  0  0  0
  -48.0575   -0.4251   16.9942 O   0  0  0  0  0  0
  -43.6097   -0.7394   18.7858 C   0  0  0  0  0  0
  -42.5848    0.2435   18.8312 C   0  0  0  0  0  0
  -42.8964    1.6184   18.7786 C   0  0  0  0  0  0
  -44.2368    2.0423   18.6792 C   0  0  0  0  0  0
  -45.2842    1.0911   18.6321 C   0  0  0  0  0  0
  -46.6907    1.5738   18.5244 C   0  0  0  0  0  0
  -43.2147   -2.1962   18.8422 C   0  0  0  0  0  0
  -49.1509    0.5981   20.5945 C   0  0  0  0  0  0
  -47.4399   -1.8619   22.2369 H   0  0  0  0  0  0
  -51.3641   -4.8075   18.3692 H   0  0  0  0  0  0
  -47.0910   -2.9187   15.3086 H   0  0  0  0  0  0
  -48.4109   -4.0684   13.4246 H   0  0  0  0  0  0
  1  5  1  0  0  0
  1 46  1  0  0  0
  2  3  1  0  0  0
  2 46  1  0  0  0
  3  4  1  0  0  0
  3 13  1  0  0  0
  4  5  1  0  0  0
  4 12  2  0  0  0
  5 47  1  0  0  0
  6  7  2  0  0  0
  6 11  1  0  0  0
  6 37  1  0  0  0
  7  8  1  0  0  0
  8  9  2  0  0  0
  9 10  1  0  0  0
 10 11  2  0  0  0
 13 14  1  0  0  0
 13 17  1  0  0  0
 14 15  1  0  0  0
 14 20  2  0  0  0
 15 16  1  0  0  0
 15 48  1  0  0  0
 16 27  1  0  0  0
 16 28  1  0  0  0
 17 18  1  0  0  0
 17 19  1  0  0  0
 21 22  2  0  0  0
 21 26  1  0  0  0
 22 23  1  0  0  0
 23 24  2  0  0  0
 24 25  1  0  0  0
 25 26  2  0  0  0
 25 27  1  0  0  0
 28 29  1  0  0  0
 29 30  1  0  0  0
 29 36  1  0  0  0
 30 31  1  0  0  0
 30 37  1  0  0  0
 31 32  1  0  0  0
 31 49  1  0  0  0
 32 33  1  0  0  0
 32 38  2  0  0  0
 33 34  1  0  0  0
 34 35  1  0  0  0
 35 39  2  0  0  0
 35 43  1  0  0  0
 36 50  1  0  0  0
 39 40  1  0  0  0
 39 45  1  0  0  0
 40 41  2  0  0  0
 41 42  1  0  0  0
 42 43  2  0  0  0
 43 44  1  0  0  0
M  END
>  <CHROM.0>
-59.04433830,68.33350605,-160.03197923

>  <CHROM.1>
63.19038332,-28.85482869,146.18985797,-163.91500122,-79.34363165,-87.79189161
-110.07311229,-59.16116839,128.43417515,22.67939517,-58.48044607,-125.79009252
121.80762728,-170.73456207,-108.08376795,-75.47965303,-49.18820372,-1.80323645
17.06634364,0.16725249,0.59529310,1.75689869

>  <Name>
Lopinavir.pdb

>  <RI>
-1.61344e+08

>  <Rbt.Current_Directory>
/root/miniconda3/envs/rdock/share/rxdock-2013.1.1_148c5bd1-0/data/ligands/prepped_ligands/Lopinavir

>  <Rbt.Executable>
rbdock/0.1.0

>  <Rbt.Library>
librxdock.so/0.1.0

>  <Rbt.Parameter_File>
/root/miniconda3/envs/rdock/share/rxdock-2013.1.1_148c5bd1-0/data/scripts/dock.prm

>  <Rbt.Receptor>
def.prm

>  <SCORE>
7.40881

>  <SCORE.INTER>
-14.4497

>  <SCORE.INTER.CONST>
1

>  <SCORE.INTER.POLAR>
-1.05015

>  <SCORE.INTER.REPUL>
0

>  <SCORE.INTER.ROT>
15

>  <SCORE.INTER.VDW>
-31.2792

>  <SCORE.INTER.norm>
-0.314124

>  <SCORE.INTRA>
21.1952

>  <SCORE.INTRA.DIHEDRAL>
25.8313

>  <SCORE.INTRA.DIHEDRAL.0>
17.6555

>  <SCORE.INTRA.POLAR>
0.227187

>  <SCORE.INTRA.POLAR.0>
-0.227187

>  <SCORE.INTRA.REPUL>
0

>  <SCORE.INTRA.REPUL.0>
0

>  <SCORE.INTRA.VDW>
7.50713

>  <SCORE.INTRA.VDW.0>
-8.98636

>  <SCORE.INTRA.norm>
0.460766

>  <SCORE.RESTR>
1.05945

>  <SCORE.RESTR.CAVITY>
1.05945

>  <SCORE.RESTR.norm>
0.0230315

>  <SCORE.SYSTEM>
-0.396177

>  <SCORE.SYSTEM.CONST>
0

>  <SCORE.SYSTEM.DIHEDRAL>
1.22291

>  <SCORE.SYSTEM.POLAR>
-0.0188502

>  <SCORE.SYSTEM.VDW>
-0.943543

>  <SCORE.SYSTEM.norm>
-0.00861255

>  <SCORE.heavy>
46

>  <SCORE.norm>
0.161061

$$$$
Lopinavir.pdb
  RxDock  02242111053D
librxdock.so/0.1.0
 50 53  0  0  0  0  0  0  0  0999 V2000
  -53.8494   -3.7560   20.2186 C   0  0  0  0  0  0
  -51.3662   -3.9830   19.9398 C   0  0  0  0  0  0
  -51.3268   -2.5423   19.4911 N   0  0  0  0  0  0
  -52.4836   -1.7786   19.4165 C   0  0  0  0  0  0
  -53.6652   -2.3635   19.7642 N   0  0  0  0  0  0
  -49.2472    0.4742   13.6305 C   0  0  0  0  0  0
  -49.9145    1.5750   13.0401 C   0  0  0  0  0  0
  -49.4071    2.1914   11.8697 C   0  0  0  0  0  0
  -48.2234    1.7123   11.2773 C   0  0  0  0  0  0
  -47.5489    0.6157   11.8576 C   0  0  0  0  0  0
  -48.0556   -0.0001   13.0257 C   0  0  0  0  0  0
  -52.4693   -0.6154   19.0525 O   0  0  0  0  0  0
  -50.0150   -1.9132   19.1075 C   0  0  0  0  0  0
  -49.2074   -2.9095   18.2314 C   0  0  0  0  0  0
  -49.9412   -3.4136   17.1910 N   0  0  0  0  0  0
  -49.4349   -4.3803   16.1917 C   0  0  0  0  0  0
  -49.1998   -1.4312   20.3719 C   0  0  0  0  0  0
  -49.1201   -2.4879   21.4905 C   0  0  0  0  0  0
  -47.7602   -1.0272   19.9772 C   0  0  0  0  0  0
  -48.0340   -3.1899   18.4819 O   0  0  0  0  0  0
  -53.7153   -4.4835   14.8818 C   0  0  0  0  0  0
  -54.6009   -5.2063   15.7165 C   0  0  0  0  0  0
  -54.0821   -6.0776   16.7024 C   0  0  0  0  0  0
  -52.6835   -6.2209   16.8487 C   0  0  0  0  0  0
  -51.7873   -5.4993   16.0140 C   0  0  0  0  0  0
  -52.3154   -4.6305   15.0313 C   0  0  0  0  0  0
  -50.3028   -5.6600   16.1795 C   0  0  0  0  0  0
  -49.4973   -3.8009   14.7616 C   0  0  0  0  0  0
  -48.7876   -2.4728   14.4408 C   0  0  0  0  0  0
  -48.9448   -1.3228   15.4683 C   0  0  0  0  0  0
  -47.5971   -0.7928   15.7809 N   0  0  0  0  0  0
  -47.3260    0.0458   16.8311 C   0  0  0  0  0  0
  -45.8517    0.4832   16.9357 C   0  0  0  0  0  0
  -45.6921    1.6309   17.7898 O   0  0  0  0  0  0
  -45.5868    1.3157   19.1581 C   0  0  0  0  0  0
  -47.4159   -2.7784   14.3654 O   0  0  0  0  0  0
  -49.8136   -0.1718   14.8801 C   0  0  0  0  0  0
  -48.1614    0.4567   17.6437 O   0  0  0  0  0  0
  -44.5399    0.4672   19.6615 C   0  0  0  0  0  0
  -44.4858    0.1875   21.0534 C   0  0  0  0  0  0
  -45.4393    0.7315   21.9396 C   0  0  0  0  0  0
  -46.4669    1.5662   21.4564 C   0  0  0  0  0  0
  -46.5524    1.8661   20.0755 C   0  0  0  0  0  0
  -47.6505    2.7546   19.5984 C   0  0  0  0  0  0
  -43.4894   -0.1409   18.7625 C   0  0  0  0  0  0
  -52.5700   -4.3260   20.8422 C   0  0  0  0  0  0
  -54.4551   -1.7235   19.6803 H   0  0  0  0  0  0
  -50.8964   -3.0576   17.1592 H   0  0  0  0  0  0
  -46.7784   -1.0281   15.2196 H   0  0  0  0  0  0
  -47.1620   -2.6129   13.4643 H   0  0  0  0  0  0
  1  5  1  0  0  0
  1 46  1  0  0  0
  2  3  1  0  0  0
  2 46  1  0  0  0
  3  4  1  0  0  0
  3 13  1  0  0  0
  4  5  1  0  0  0
  4 12  2  0  0  0
  5 47  1  0  0  0
  6  7  2  0  0  0
  6 11  1  0  0  0
  6 37  1  0  0  0
  7  8  1  0  0  0
  8  9  2  0  0  0
  9 10  1  0  0  0
 10 11  2  0  0  0
 13 14  1  0  0  0
 13 17  1  0  0  0
 14 15  1  0  0  0
 14 20  2  0  0  0
 15 16  1  0  0  0
 15 48  1  0  0  0
 16 27  1  0  0  0
 16 28  1  0  0  0
 17 18  1  0  0  0
 17 19  1  0  0  0
 21 22  2  0  0  0
 21 26  1  0  0  0
 22 23  1  0  0  0
 23 24  2  0  0  0
 24 25  1  0  0  0
 25 26  2  0  0  0
 25 27  1  0  0  0
 28 29  1  0  0  0
 29 30  1  0  0  0
 29 36  1  0  0  0
 30 31  1  0  0  0
 30 37  1  0  0  0
 31 32  1  0  0  0
 31 49  1  0  0  0
 32 33  1  0  0  0
 32 38  2  0  0  0
 33 34  1  0  0  0
 34 35  1  0  0  0
 35 39  2  0  0  0
 35 43  1  0  0  0
 36 50  1  0  0  0
 39 40  1  0  0  0
 39 45  1  0  0  0
 40 41  2  0  0  0
 41 42  1  0  0  0
 42 43  2  0  0  0
 43 44  1  0  0  0
M  END
>  <CHROM.0>
-43.45930333,-63.99891435,-59.85390569

>  <CHROM.1>
43.44344806,-176.96722815,50.47550477,47.42637130,122.21745376,52.89512201
56.31018530,-134.36159566,-43.72975418,129.81754800,115.34893833,-166.86795788
-60.66801113,163.47949949,84.76081151,59.35581732,-49.24022685,-1.55261545
17.34711204,3.08958699,-0.70208346,-1.44891719

>  <Name>
Lopinavir.pdb

>  <RI>
-1.61344e+08

>  <Rbt.Current_Directory>
/root/miniconda3/envs/rdock/share/rxdock-2013.1.1_148c5bd1-0/data/ligands/prepped_ligands/Lopinavir

>  <Rbt.Executable>
rbdock/0.1.0

>  <Rbt.Library>
librxdock.so/0.1.0

>  <Rbt.Parameter_File>
/root/miniconda3/envs/rdock/share/rxdock-2013.1.1_148c5bd1-0/data/scripts/dock.prm

>  <Rbt.Receptor>
def.prm

>  <SCORE>
3.48516

>  <SCORE.INTER>
-8.94583

>  <SCORE.INTER.CONST>
1

>  <SCORE.INTER.POLAR>
-1.14924

>  <SCORE.INTER.REPUL>
0

>  <SCORE.INTER.ROT>
15

>  <SCORE.INTER.VDW>
-25.4384

>  <SCORE.INTER.norm>
-0.194475

>  <SCORE.INTRA>
12.9529

>  <SCORE.INTRA.DIHEDRAL>
10.6765

>  <SCORE.INTRA.DIHEDRAL.0>
17.6555

>  <SCORE.INTRA.POLAR>
0.225268

>  <SCORE.INTRA.POLAR.0>
-0.227187

>  <SCORE.INTRA.REPUL>
0

>  <SCORE.INTRA.REPUL.0>
0

>  <SCORE.INTRA.VDW>
6.84872

>  <SCORE.INTRA.VDW.0>
-8.98636

>  <SCORE.INTRA.norm>
0.281584

>  <SCORE.RESTR>
0.129963

>  <SCORE.RESTR.CAVITY>
0.129963

>  <SCORE.RESTR.norm>
0.00282529

>  <SCORE.SYSTEM>
-0.651821

>  <SCORE.SYSTEM.CONST>
0

>  <SCORE.SYSTEM.DIHEDRAL>
0.701888

>  <SCORE.SYSTEM.POLAR>
-0.00115034

>  <SCORE.SYSTEM.VDW>
-0.998854

>  <SCORE.SYSTEM.norm>
-0.01417

>  <SCORE.heavy>
46

>  <SCORE.norm>
0.0757644

$$$$
Lopinavir.pdb
  RxDock  02242111063D
librxdock.so/0.1.0
 50 53  0  0  0  0  0  0  0  0999 V2000
  -47.4645   -7.6572   17.8497 C   0  0  0  0  0  0
  -49.8682   -7.9541   18.5054 C   0  0  0  0  0  0
  -49.9924   -6.4511   18.5713 N   0  0  0  0  0  0
  -48.9116   -5.6256   18.2931 C   0  0  0  0  0  0
  -47.7269   -6.2081   17.9526 N   0  0  0  0  0  0
  -47.0223   -1.0343   14.8313 C   0  0  0  0  0  0
  -45.9122   -0.1682   14.9823 C   0  0  0  0  0  0
  -44.5870   -0.6645   14.9131 C   0  0  0  0  0  0
  -44.3586   -2.0360   14.6928 C   0  0  0  0  0  0
  -45.4579   -2.9094   14.5414 C   0  0  0  0  0  0
  -46.7809   -2.4139   14.6100 C   0  0  0  0  0  0
  -48.9945   -4.4105   18.3457 O   0  0  0  0  0  0
  -51.3062   -5.8245   18.9521 C   0  0  0  0  0  0
  -51.6400   -4.6875   17.9480 C   0  0  0  0  0  0
  -51.6588   -5.1186   16.6484 N   0  0  0  0  0  0
  -51.9491   -4.2600   15.4788 C   0  0  0  0  0  0
  -51.3072   -5.3201   20.4492 C   0  0  0  0  0  0
  -52.6634   -4.7467   20.9031 C   0  0  0  0  0  0
  -50.9108   -6.4613   21.4145 C   0  0  0  0  0  0
  -51.8567   -3.5339   18.3229 O   0  0  0  0  0  0
  -56.4534   -6.5431   15.4073 C   0  0  0  0  0  0
  -55.8169   -7.7926   15.2147 C   0  0  0  0  0  0
  -54.4149   -7.8459   15.0365 C   0  0  0  0  0  0
  -53.6581   -6.6521   15.0523 C   0  0  0  0  0  0
  -54.2897   -5.3931   15.2443 C   0  0  0  0  0  0
  -55.6918   -5.3501   15.4217 C   0  0  0  0  0  0
  -53.4743   -4.1314   15.2593 C   0  0  0  0  0  0
  -51.4186   -2.8244   15.6850 C   0  0  0  0  0  0
  -49.9644   -2.4834   15.3114 C   0  0  0  0  0  0
  -49.3619   -1.1942   15.9264 C   0  0  0  0  0  0
  -48.5630   -1.5766   17.1140 N   0  0  0  0  0  0
  -47.6624   -0.7487   17.7329 C   0  0  0  0  0  0
  -46.9333   -1.3817   18.9346 C   0  0  0  0  0  0
  -46.4098   -0.3839   19.8305 O   0  0  0  0  0  0
  -45.3045    0.3220   19.3179 C   0  0  0  0  0  0
  -49.1868   -3.5642   15.7672 O   0  0  0  0  0  0
  -48.4311   -0.4776   14.9039 C   0  0  0  0  0  0
  -47.4100    0.4100   17.3856 O   0  0  0  0  0  0
  -45.3868    1.7185   18.9827 C   0  0  0  0  0  0
  -44.2359    2.3758   18.4711 C   0  0  0  0  0  0
  -43.0224    1.6787   18.2926 C   0  0  0  0  0  0
  -42.9310    0.3111   18.6208 C   0  0  0  0  0  0
  -44.0576   -0.3766   19.1324 C   0  0  0  0  0  0
  -43.9256   -1.8224   19.4718 C   0  0  0  0  0  0
  -46.6567    2.5179   19.1553 C   0  0  0  0  0  0
  -48.7464   -8.4500   17.5689 C   0  0  0  0  0  0
  -46.9963   -5.5216   17.7639 H   0  0  0  0  0  0
  -51.4497   -6.1117   16.5481 H   0  0  0  0  0  0
  -48.6409   -2.4973   17.5463 H   0  0  0  0  0  0
  -49.5056   -3.7634   16.6404 H   0  0  0  0  0  0
  1  5  1  0  0  0
  1 46  1  0  0  0
  2  3  1  0  0  0
  2 46  1  0  0  0
  3  4  1  0  0  0
  3 13  1  0  0  0
  4  5  1  0  0  0
  4 12  2  0  0  0
  5 47  1  0  0  0
  6  7  2  0  0  0
  6 11  1  0  0  0
  6 37  1  0  0  0
  7  8  1  0  0  0
  8  9  2  0  0  0
  9 10  1  0  0  0
 10 11  2  0  0  0
 13 14  1  0  0  0
 13 17  1  0  0  0
 14 15  1  0  0  0
 14 20  2  0  0  0
 15 16  1  0  0  0
 15 48  1  0  0  0
 16 27  1  0  0  0
 16 28  1  0  0  0
 17 18  1  0  0  0
 17 19  1  0  0  0
 21 22  2  0  0  0
 21 26  1  0  0  0
 22 23  1  0  0  0
 23 24  2  0  0  0
 24 25  1  0  0  0
 25 26  2  0  0  0
 25 27  1  0  0  0
 28 29  1  0  0  0
 29 30  1  0  0  0
 29 36  1  0  0  0
 30 31  1  0  0  0
 30 37  1  0  0  0
 31 32  1  0  0  0
 31 49  1  0  0  0
 32 33  1  0  0  0
 32 38  2  0  0  0
 33 34  1  0  0  0
 34 35  1  0  0  0
 35 39  2  0  0  0
 35 43  1  0  0  0
 36 50  1  0  0  0
 39 40  1  0  0  0
 39 45  1  0  0  0
 40 41  2  0  0  0
 41 42  1  0  0  0
 42 43  2  0  0  0
 43 44  1  0  0  0
M  END
>  <CHROM.0>
95.68314705,64.72359022,33.95836625

>  <CHROM.1>
-132.61868713,-126.78747912,56.06211682,-176.60040731,-84.04139947,-49.39977977
86.62896505,-17.59467373,-161.65012856,97.83382284,-44.44648686,165.38955685
-82.47232442,-158.17511333,-71.45230562,112.16486916,-49.00577873,-3.22101005
17.27497104,-2.79277027,-0.59681935,-0.83356749

>  <Name>
Lopinavir.pdb

>  <RI>
-1.61344e+08

>  <Rbt.Current_Directory>
/root/miniconda3/envs/rdock/share/rxdock-2013.1.1_148c5bd1-0/data/ligands/prepped_ligands/Lopinavir

>  <Rbt.Executable>
rbdock/0.1.0

>  <Rbt.Library>
librxdock.so/0.1.0

>  <Rbt.Parameter_File>
/root/miniconda3/envs/rdock/share/rxdock-2013.1.1_148c5bd1-0/data/scripts/dock.prm

>  <Rbt.Receptor>
def.prm

>  <SCORE>
-2.82692

>  <SCORE.INTER>
-10.944

>  <SCORE.INTER.CONST>
1

>  <SCORE.INTER.POLAR>
0

>  <SCORE.INTER.REPUL>
0.0562145

>  <SCORE.INTER.ROT>
15

>  <SCORE.INTER.VDW>
-31.6251

>  <SCORE.INTER.norm>
-0.237913

>  <SCORE.INTRA>
6.69706

>  <SCORE.INTRA.DIHEDRAL>
6.2106

>  <SCORE.INTRA.DIHEDRAL.0>
17.6555

>  <SCORE.INTRA.POLAR>
-0.771374

>  <SCORE.INTRA.POLAR.0>
-0.227187

>  <SCORE.INTRA.REPUL>
0

>  <SCORE.INTRA.REPUL.0>
0

>  <SCORE.INTRA.VDW>
6.21444

>  <SCORE.INTRA.VDW.0>
-8.98636

>  <SCORE.INTRA.norm>
0.145588

>  <SCORE.RESTR>
0

>  <SCORE.RESTR.CAVITY>
0

>  <SCORE.RESTR.norm>
0

>  <SCORE.SYSTEM>
1.42002

>  <SCORE.SYSTEM.CONST>
0

>  <SCORE.SYSTEM.DIHEDRAL>
3.86864

>  <SCORE.SYSTEM.VDW>
-0.514305

>  <SCORE.SYSTEM.norm>
0.0308699

>  <SCORE.heavy>
46

>  <SCORE.norm>
-0.0614548

$$$$
Lopinavir.pdb
  RxDock  02242111063D
librxdock.so/0.1.0
 50 53  0  0  0  0  0  0  0  0999 V2000
  -52.0382   -7.3565   20.8107 C   0  0  0  0  0  0
  -51.7328   -8.0127   18.4082 C   0  0  0  0  0  0
  -51.8337   -6.5523   18.0399 N   0  0  0  0  0  0
  -52.0261   -5.5763   19.0081 C   0  0  0  0  0  0
  -52.1189   -5.9700   20.3101 N   0  0  0  0  0  0
  -50.4522   -0.8280   19.9634 C   0  0  0  0  0  0
  -51.1823    0.1675   19.2696 C   0  0  0  0  0  0
  -52.5649    0.0055   19.0064 C   0  0  0  0  0  0
  -53.2324   -1.1575   19.4346 C   0  0  0  0  0  0
  -52.5145   -2.1574   20.1267 C   0  0  0  0  0  0
  -51.1343   -1.9956   20.3900 C   0  0  0  0  0  0
  -52.1137   -4.3935   18.7268 O   0  0  0  0  0  0
  -51.7328   -6.1352   16.5978 C   0  0  0  0  0  0
  -50.9529   -4.7951   16.5070 C   0  0  0  0  0  0
  -49.8565   -4.7649   17.3268 N   0  0  0  0  0  0
  -48.9252   -3.6215   17.4485 C   0  0  0  0  0  0
  -53.1513   -6.0500   15.9078 C   0  0  0  0  0  0
  -54.0096   -7.3135   16.1104 C   0  0  0  0  0  0
  -53.9452   -4.8303   16.4306 C   0  0  0  0  0  0
  -51.3171   -3.8816   15.7646 O   0  0  0  0  0  0
  -49.1970   -3.9451   12.5587 C   0  0  0  0  0  0
  -50.0152   -2.8039   12.3808 C   0  0  0  0  0  0
  -50.1874   -1.8908   13.4471 C   0  0  0  0  0  0
  -49.5414   -2.1228   14.6828 C   0  0  0  0  0  0
  -48.7187   -3.2668   14.8700 C   0  0  0  0  0  0
  -48.5526   -4.1739   13.7980 C   0  0  0  0  0  0
  -48.0374   -3.5021   16.1881 C   0  0  0  0  0  0
  -49.6854   -2.2829   17.5712 C   0  0  0  0  0  0
  -48.9007   -0.9649   17.7036 C   0  0  0  0  0  0
  -48.0551   -0.7735   18.9888 C   0  0  0  0  0  0
  -47.2553    0.4644   18.8374 N   0  0  0  0  0  0
  -45.8849    0.4948   18.8092 C   0  0  0  0  0  0
  -45.2796    1.9054   18.6689 C   0  0  0  0  0  0
  -44.8533    2.4347   19.9379 O   0  0  0  0  0  0
  -43.9573    1.6006   20.6338 C   0  0  0  0  0  0
  -48.0118   -0.9354   16.6129 O   0  0  0  0  0  0
  -48.9741   -0.6284   20.2377 C   0  0  0  0  0  0
  -45.1521   -0.4960   18.9001 O   0  0  0  0  0  0
  -42.5633    1.5291   20.2861 C   0  0  0  0  0  0
  -41.7089    0.6696   21.0276 C   0  0  0  0  0  0
  -42.2096   -0.1059   22.0944 C   0  0  0  0  0  0
  -43.5732   -0.0404   22.4446 C   0  0  0  0  0  0
  -44.4542    0.8045   21.7276 C   0  0  0  0  0  0
  -45.8901    0.8516   22.1260 C   0  0  0  0  0  0
  -41.9691    2.3376   19.1570 C   0  0  0  0  0  0
  -51.2550   -8.2631   19.8540 C   0  0  0  0  0  0
  -52.2558   -5.1835   20.9452 H   0  0  0  0  0  0
  -49.7292   -5.6220   17.8646 H   0  0  0  0  0  0
  -47.6898    1.3825   18.7434 H   0  0  0  0  0  0
  -48.4371   -0.4088   15.9454 H   0  0  0  0  0  0
  1  5  1  0  0  0
  1 46  1  0  0  0
  2  3  1  0  0  0
  2 46  1  0  0  0
  3  4  1  0  0  0
  3 13  1  0  0  0
  4  5  1  0  0  0
  4 12  2  0  0  0
  5 47  1  0  0  0
  6  7  2  0  0  0
  6 11  1  0  0  0
  6 37  1  0  0  0
  7  8  1  0  0  0
  8  9  2  0  0  0
  9 10  1  0  0  0
 10 11  2  0  0  0
 13 14  1  0  0  0
 13 17  1  0  0  0
 14 15  1  0  0  0
 14 20  2  0  0  0
 15 16  1  0  0  0
 15 48  1  0  0  0
 16 27  1  0  0  0
 16 28  1  0  0  0
 17 18  1  0  0  0
 17 19  1  0  0  0
 21 22  2  0  0  0
 21 26  1  0  0  0
 22 23  1  0  0  0
 23 24  2  0  0  0
 24 25  1  0  0  0
 25 26  2  0  0  0
 25 27  1  0  0  0
 28 29  1  0  0  0
 29 30  1  0  0  0
 29 36  1  0  0  0
 30 31  1  0  0  0
 30 37  1  0  0  0
 31 32  1  0  0  0
 31 49  1  0  0  0
 32 33  1  0  0  0
 32 38  2  0  0  0
 33 34  1  0  0  0
 34 35  1  0  0  0
 35 39  2  0  0  0
 35 43  1  0  0  0
 36 50  1  0  0  0
 39 40  1  0  0  0
 39 45  1  0  0  0
 40 41  2  0  0  0
 41 42  1  0  0  0
 42 43  2  0  0  0
 43 44  1  0  0  0
M  END
>  <CHROM.0>
-25.68052212,-172.38131082,56.44798876

>  <CHROM.1>
-142.72003027,-72.90239011,42.62495090,-50.64190044,-72.70081305,60.92915809
-179.79698876,58.57915631,-65.34144420,172.87827622,96.90045715,-116.86729236
5.28485011,98.96144745,54.81533675,78.23582055,-48.95317420,-2.37709065,18.23908749
2.82950942,-0.69130604,-1.58263206

>  <Name>
Lopinavir.pdb

>  <RI>
-1.61344e+08

>  <Rbt.Current_Directory>
/root/miniconda3/envs/rdock/share/rxdock-2013.1.1_148c5bd1-0/data/ligands/prepped_ligands/Lopinavir

>  <Rbt.Executable>
rbdock/0.1.0

>  <Rbt.Library>
librxdock.so/0.1.0

>  <Rbt.Parameter_File>
/root/miniconda3/envs/rdock/share/rxdock-2013.1.1_148c5bd1-0/data/scripts/dock.prm

>  <Rbt.Receptor>
def.prm

>  <SCORE>
30.652

>  <SCORE.INTER>
16.4599

>  <SCORE.INTER.CONST>
1

>  <SCORE.INTER.POLAR>
0

>  <SCORE.INTER.REPUL>
0.117183

>  <SCORE.INTER.ROT>
15

>  <SCORE.INTER.VDW>
-4.52598

>  <SCORE.INTER.norm>
0.357825

>  <SCORE.INTRA>
13.2424

>  <SCORE.INTRA.DIHEDRAL>
6.25407

>  <SCORE.INTRA.DIHEDRAL.0>
17.6555

>  <SCORE.INTRA.POLAR>
0.227187

>  <SCORE.INTRA.POLAR.0>
-0.227187

>  <SCORE.INTRA.REPUL>
0

>  <SCORE.INTRA.REPUL.0>
0

>  <SCORE.INTRA.VDW>
9.34289

>  <SCORE.INTRA.VDW.0>
-8.98636

>  <SCORE.INTRA.norm>
0.287877

>  <SCORE.RESTR>
0.425022

>  <SCORE.RESTR.CAVITY>
0.425022

>  <SCORE.RESTR.norm>
0.0092396

>  <SCORE.SYSTEM>
0.524728

>  <SCORE.SYSTEM.CONST>
0

>  <SCORE.SYSTEM.DIHEDRAL>
2.50655

>  <SCORE.SYSTEM.VDW>
-0.728548

>  <SCORE.SYSTEM.norm>
0.0114071

>  <SCORE.heavy>
46

>  <SCORE.norm>
0.666349

$$$$
