Lopinavir.pdb
  RxDock  02242109543D
librxdock.so/0.1.0
 50 53  0  0  0  0  0  0  0  0999 V2000
  -52.8312   -8.1881   21.5998 C   0  0  0  0  0  0
  -51.0508   -6.9701   20.3183 C   0  0  0  0  0  0
  -51.8120   -5.6891   20.5595 N   0  0  0  0  0  0
  -53.0023   -5.6815   21.2739 C   0  0  0  0  0  0
  -53.4696   -6.8666   21.7598 N   0  0  0  0  0  0
  -48.6740   -1.0168   14.5163 C   0  0  0  0  0  0
  -48.2638   -2.2356   13.9233 C   0  0  0  0  0  0
  -49.1571   -2.9950   13.1279 C   0  0  0  0  0  0
  -50.4733   -2.5421   12.9182 C   0  0  0  0  0  0
  -50.8938   -1.3284   13.5051 C   0  0  0  0  0  0
  -50.0020   -0.5700   14.2987 C   0  0  0  0  0  0
  -53.6309   -4.6565   21.4739 O   0  0  0  0  0  0
  -51.2843   -4.3904   20.0133 C   0  0  0  0  0  0
  -49.7965   -4.5741   19.6067 C   0  0  0  0  0  0
  -49.4916   -3.9557   18.4236 N   0  0  0  0  0  0
  -48.1543   -3.9581   17.7904 C   0  0  0  0  0  0
  -51.4838   -3.1982   21.0304 C   0  0  0  0  0  0
  -50.6559   -3.3472   22.3212 C   0  0  0  0  0  0
  -51.1234   -1.8465   20.3713 C   0  0  0  0  0  0
  -49.0085   -5.2168   20.3026 O   0  0  0  0  0  0
  -50.0668   -8.2944   17.3084 C   0  0  0  0  0  0
  -49.1126   -9.1162   17.9546 C   0  0  0  0  0  0
  -47.8114   -8.6200   18.2016 C   0  0  0  0  0  0
  -47.4720   -7.3071   17.8026 C   0  0  0  0  0  0
  -48.4241   -6.4755   17.1523 C   0  0  0  0  0  0
  -49.7224   -6.9806   16.9098 C   0  0  0  0  0  0
  -48.0512   -5.0819   16.7333 C   0  0  0  0  0  0
  -47.8792   -2.6346   17.0439 C   0  0  0  0  0  0
  -48.6276   -1.3531   17.4540 C   0  0  0  0  0  0
  -48.1299   -0.0189   16.8415 C   0  0  0  0  0  0
  -46.9586    0.4417   17.6232 N   0  0  0  0  0  0
  -46.8795    1.6630   18.2410 C   0  0  0  0  0  0
  -45.5483    1.9241   18.9729 C   0  0  0  0  0  0
  -44.6380    0.8167   18.8418 O   0  0  0  0  0  0
  -43.5614    0.8505   19.7488 C   0  0  0  0  0  0
  -49.9582   -1.5334   17.0323 O   0  0  0  0  0  0
  -47.6973   -0.2194   15.3589 C   0  0  0  0  0  0
  -47.7675    2.5223   18.2285 O   0  0  0  0  0  0
  -42.4178    1.6968   19.5357 C   0  0  0  0  0  0
  -41.3639    1.6878   20.4885 C   0  0  0  0  0  0
  -41.4287    0.8659   21.6332 C   0  0  0  0  0  0
  -42.5463    0.0355   21.8523 C   0  0  0  0  0  0
  -43.6149    0.0180   20.9240 C   0  0  0  0  0  0
  -44.7830   -0.8701   21.1876 C   0  0  0  0  0  0
  -42.2936    2.6003   18.3317 C   0  0  0  0  0  0
  -51.3203   -8.0671   21.3697 C   0  0  0  0  0  0
  -54.3452   -6.7585   22.2719 H   0  0  0  0  0  0
  -50.2866   -3.4776   17.9999 H   0  0  0  0  0  0
  -46.1282   -0.1376   17.7478 H   0  0  0  0  0  0
  -50.4519   -0.8181   17.4175 H   0  0  0  0  0  0
  1  5  1  0  0  0
  1 46  1  0  0  0
  2  3  1  0  0  0
  2 46  1  0  0  0
  3  4  1  0  0  0
  3 13  1  0  0  0
  4  5  1  0  0  0
  4 12  2  0  0  0
  5 47  1  0  0  0
  6  7  2  0  0  0
  6 11  1  0  0  0
  6 37  1  0  0  0
  7  8  1  0  0  0
  8  9  2  0  0  0
  9 10  1  0  0  0
 10 11  2  0  0  0
 13 14  1  0  0  0
 13 17  1  0  0  0
 14 15  1  0  0  0
 14 20  2  0  0  0
 15 16  1  0  0  0
 15 48  1  0  0  0
 16 27  1  0  0  0
 16 28  1  0  0  0
 17 18  1  0  0  0
 17 19  1  0  0  0
 21 22  2  0  0  0
 21 26  1  0  0  0
 22 23  1  0  0  0
 23 24  2  0  0  0
 24 25  1  0  0  0
 25 26  2  0  0  0
 25 27  1  0  0  0
 28 29  1  0  0  0
 29 30  1  0  0  0
 29 36  1  0  0  0
 30 31  1  0  0  0
 30 37  1  0  0  0
 31 32  1  0  0  0
 31 49  1  0  0  0
 32 33  1  0  0  0
 32 38  2  0  0  0
 33 34  1  0  0  0
 34 35  1  0  0  0
 35 39  2  0  0  0
 35 43  1  0  0  0
 36 50  1  0  0  0
 39 40  1  0  0  0
 39 45  1  0  0  0
 40 41  2  0  0  0
 41 42  1  0  0  0
 42 43  2  0  0  0
 43 44  1  0  0  0
M  END
>  <CHROM.0>
-174.84540394,174.03829197,-59.26155058

>  <CHROM.1>
-15.60057980,-118.97937705,138.71796558,65.86076753,95.63565232,-52.15083715
23.98235872,-84.11488672,169.49851792,-81.33286388,170.24808185,-123.30009911
46.20997179,0.68382592,-164.93821341,-78.84339956,-48.36611672,-2.82324173
18.56850497,-2.77978899,-0.76712049,-1.15356462

>  <Name>
Lopinavir.pdb

>  <RI>
-3.98404e+08

>  <Rbt.Current_Directory>
/root/miniconda3/envs/rdock/share/rxdock-2013.1.1_148c5bd1-0/data/ligands/prepped_ligands/Lopinavir

>  <Rbt.Executable>
rbdock/0.1.0

>  <Rbt.Library>
librxdock.so/0.1.0

>  <Rbt.Parameter_File>
/root/miniconda3/envs/rdock/share/rxdock-2013.1.1_148c5bd1-0/data/scripts/dock.prm

>  <Rbt.Receptor>
def.prm

>  <SCORE>
-2.43091

>  <SCORE.INTER>
-8.96518

>  <SCORE.INTER.CONST>
1

>  <SCORE.INTER.POLAR>
-0.783994

>  <SCORE.INTER.REPUL>
0

>  <SCORE.INTER.ROT>
15

>  <SCORE.INTER.VDW>
-26.6996

>  <SCORE.INTER.norm>
-0.194895

>  <SCORE.INTRA>
5.81305

>  <SCORE.INTRA.DIHEDRAL>
4.90973

>  <SCORE.INTRA.DIHEDRAL.0>
17.6555

>  <SCORE.INTRA.POLAR>
-0.293038

>  <SCORE.INTRA.POLAR.0>
-0.227187

>  <SCORE.INTRA.REPUL>
0

>  <SCORE.INTRA.REPUL.0>
0

>  <SCORE.INTRA.VDW>
4.35451

>  <SCORE.INTRA.VDW.0>
-8.98636

>  <SCORE.INTRA.norm>
0.126371

>  <SCORE.RESTR>
1.68394

>  <SCORE.RESTR.CAVITY>
1.68394

>  <SCORE.RESTR.norm>
0.0366074

>  <SCORE.SYSTEM>
-0.96272

>  <SCORE.SYSTEM.CONST>
0

>  <SCORE.SYSTEM.DIHEDRAL>
0.236311

>  <SCORE.SYSTEM.POLAR>
-0.00265111

>  <SCORE.SYSTEM.VDW>
-1.07186

>  <SCORE.SYSTEM.norm>
-0.0209287

>  <SCORE.heavy>
46

>  <SCORE.norm>
-0.052846

$$$$
Lopinavir.pdb
  RxDock  02242109543D
librxdock.so/0.1.0
 50 53  0  0  0  0  0  0  0  0999 V2000
  -44.9657   -2.4454   14.4219 C   0  0  0  0  0  0
  -44.2243   -1.0076   16.3399 C   0  0  0  0  0  0
  -45.1269   -1.8158   17.2403 N   0  0  0  0  0  0
  -45.8907   -2.8630   16.7432 C   0  0  0  0  0  0
  -45.8031   -3.1494   15.4131 N   0  0  0  0  0  0
  -49.1656   -4.7941   18.5141 C   0  0  0  0  0  0
  -49.3370   -5.8184   19.4768 C   0  0  0  0  0  0
  -49.2832   -7.1842   19.1039 C   0  0  0  0  0  0
  -49.0580   -7.5398   17.7606 C   0  0  0  0  0  0
  -48.8864   -6.5269   16.7917 C   0  0  0  0  0  0
  -48.9395   -5.1634   17.1639 C   0  0  0  0  0  0
  -46.6273   -3.5226   17.4561 O   0  0  0  0  0  0
  -45.2146   -1.4842   18.7052 C   0  0  0  0  0  0
  -46.1806   -0.2837   18.9004 C   0  0  0  0  0  0
  -47.4206   -0.6682   19.3357 N   0  0  0  0  0  0
  -48.5427    0.2564   19.6101 C   0  0  0  0  0  0
  -43.7911   -1.2155   19.3355 C   0  0  0  0  0  0
  -43.1648    0.1200   18.8906 C   0  0  0  0  0  0
  -43.8612   -1.2325   20.8802 C   0  0  0  0  0  0
  -45.8286    0.8754   18.6747 O   0  0  0  0  0  0
  -47.6287   -0.6924   15.1309 C   0  0  0  0  0  0
  -48.7875   -1.3116   14.6044 C   0  0  0  0  0  0
  -50.0194   -1.1921   15.2887 C   0  0  0  0  0  0
  -50.0863   -0.4552   16.4931 C   0  0  0  0  0  0
  -48.9271    0.1691   17.0291 C   0  0  0  0  0  0
  -47.7000    0.0441   16.3377 C   0  0  0  0  0  0
  -49.0112    0.9498   18.3099 C   0  0  0  0  0  0
  -49.7716   -0.4948   20.1674 C   0  0  0  0  0  0
  -50.6967   -1.2679   19.2098 C   0  0  0  0  0  0
  -50.6487   -2.8158   19.2789 C   0  0  0  0  0  0
  -51.6051   -3.3542   18.2837 N   0  0  0  0  0  0
  -52.5223   -4.3369   18.5533 C   0  0  0  0  0  0
  -53.3906   -4.7490   17.3482 C   0  0  0  0  0  0
  -52.7229   -5.7098   16.5096 O   0  0  0  0  0  0
  -53.5424   -6.7791   16.1000 C   0  0  0  0  0  0
  -52.0073   -0.8773   19.5424 O   0  0  0  0  0  0
  -49.2219   -3.3396   18.9393 C   0  0  0  0  0  0
  -52.6690   -4.8879   19.6497 O   0  0  0  0  0  0
  -54.5774   -6.6063   15.1160 C   0  0  0  0  0  0
  -55.3702   -7.7246   14.7427 C   0  0  0  0  0  0
  -55.1524   -8.9929   15.3209 C   0  0  0  0  0  0
  -54.1388   -9.1728   16.2836 C   0  0  0  0  0  0
  -53.3297   -8.0810   16.6803 C   0  0  0  0  0  0
  -52.2650   -8.3068   17.6992 C   0  0  0  0  0  0
  -54.8551   -5.2744   14.4600 C   0  0  0  0  0  0
  -43.7593   -1.7629   15.0771 C   0  0  0  0  0  0
  -46.3967   -3.9345   15.1447 H   0  0  0  0  0  0
  -47.5117   -1.6764   19.4595 H   0  0  0  0  0  0
  -51.6348   -3.0156   17.3219 H   0  0  0  0  0  0
  -52.5719   -1.2851   18.8954 H   0  0  0  0  0  0
  1  5  1  0  0  0
  1 46  1  0  0  0
  2  3  1  0  0  0
  2 46  1  0  0  0
  3  4  1  0  0  0
  3 13  1  0  0  0
  4  5  1  0  0  0
  4 12  2  0  0  0
  5 47  1  0  0  0
  6  7  2  0  0  0
  6 11  1  0  0  0
  6 37  1  0  0  0
  7  8  1  0  0  0
  8  9  2  0  0  0
  9 10  1  0  0  0
 10 11  2  0  0  0
 13 14  1  0  0  0
 13 17  1  0  0  0
 14 15  1  0  0  0
 14 20  2  0  0  0
 15 16  1  0  0  0
 15 48  1  0  0  0
 16 27  1  0  0  0
 16 28  1  0  0  0
 17 18  1  0  0  0
 17 19  1  0  0  0
 21 22  2  0  0  0
 21 26  1  0  0  0
 22 23  1  0  0  0
 23 24  2  0  0  0
 24 25  1  0  0  0
 25 26  2  0  0  0
 25 27  1  0  0  0
 28 29  1  0  0  0
 29 30  1  0  0  0
 29 36  1  0  0  0
 30 31  1  0  0  0
 30 37  1  0  0  0
 31 32  1  0  0  0
 31 49  1  0  0  0
 32 33  1  0  0  0
 32 38  2  0  0  0
 33 34  1  0  0  0
 34 35  1  0  0  0
 35 39  2  0  0  0
 35 43  1  0  0  0
 36 50  1  0  0  0
 39 40  1  0  0  0
 39 45  1  0  0  0
 40 41  2  0  0  0
 41 42  1  0  0  0
 42 43  2  0  0  0
 43 44  1  0  0  0
M  END
>  <CHROM.0>
78.59944819,-71.44831073,-42.48743916

>  <CHROM.1>
80.82180605,-73.45934357,101.48266849,72.02195986,65.32261361,33.38454941
-78.85742217,99.94130157,108.93318872,-179.94276008,174.40497148,-132.20404222
-159.99517415,83.13869102,135.70059823,72.82171003,-49.22026025,-3.26787249
17.48602650,-0.65488885,-0.16387559,-2.71576643

>  <Name>
Lopinavir.pdb

>  <RI>
-3.98404e+08

>  <Rbt.Current_Directory>
/root/miniconda3/envs/rdock/share/rxdock-2013.1.1_148c5bd1-0/data/ligands/prepped_ligands/Lopinavir

>  <Rbt.Executable>
rbdock/0.1.0

>  <Rbt.Library>
librxdock.so/0.1.0

>  <Rbt.Parameter_File>
/root/miniconda3/envs/rdock/share/rxdock-2013.1.1_148c5bd1-0/data/scripts/dock.prm

>  <Rbt.Receptor>
def.prm

>  <SCORE>
-2.96078

>  <SCORE.INTER>
-12.1271

>  <SCORE.INTER.CONST>
1

>  <SCORE.INTER.POLAR>
-1.29851

>  <SCORE.INTER.REPUL>
0

>  <SCORE.INTER.ROT>
15

>  <SCORE.INTER.VDW>
-28.1121

>  <SCORE.INTER.norm>
-0.263632

>  <SCORE.INTRA>
8.94609

>  <SCORE.INTRA.DIHEDRAL>
13.5297

>  <SCORE.INTRA.DIHEDRAL.0>
17.6555

>  <SCORE.INTRA.POLAR>
0.227187

>  <SCORE.INTRA.POLAR.0>
-0.227187

>  <SCORE.INTRA.REPUL>
0

>  <SCORE.INTRA.REPUL.0>
0

>  <SCORE.INTRA.VDW>
1.40883

>  <SCORE.INTRA.VDW.0>
-8.98636

>  <SCORE.INTRA.norm>
0.19448

>  <SCORE.RESTR>
0.0590626

>  <SCORE.RESTR.CAVITY>
0.0590626

>  <SCORE.RESTR.norm>
0.00128397

>  <SCORE.SYSTEM>
0.161121

>  <SCORE.SYSTEM.CONST>
0

>  <SCORE.SYSTEM.DIHEDRAL>
2.09709

>  <SCORE.SYSTEM.POLAR>
-0.0200061

>  <SCORE.SYSTEM.VDW>
-0.819405

>  <SCORE.SYSTEM.norm>
0.00350263

>  <SCORE.heavy>
46

>  <SCORE.norm>
-0.0643648

$$$$
Lopinavir.pdb
  RxDock  02242109543D
librxdock.so/0.1.0
 50 53  0  0  0  0  0  0  0  0999 V2000
  -41.4384    1.8591   19.6535 C   0  0  0  0  0  0
  -43.1346    0.6070   21.0139 C   0  0  0  0  0  0
  -44.1948    1.0762   20.0473 N   0  0  0  0  0  0
  -43.8762    1.8840   18.9642 C   0  0  0  0  0  0
  -42.5726    2.2435   18.7902 N   0  0  0  0  0  0
  -50.0743   -5.4435   16.8360 C   0  0  0  0  0  0
  -51.4144   -5.6583   17.2401 C   0  0  0  0  0  0
  -51.8493   -6.9363   17.6698 C   0  0  0  0  0  0
  -50.9458   -8.0155   17.6984 C   0  0  0  0  0  0
  -49.6070   -7.8135   17.2970 C   0  0  0  0  0  0
  -49.1726   -6.5374   16.8685 C   0  0  0  0  0  0
  -44.7209    2.2746   18.1770 O   0  0  0  0  0  0
  -45.6293    0.6733   20.2559 C   0  0  0  0  0  0
  -46.1250   -0.1135   19.0118 C   0  0  0  0  0  0
  -47.2912   -0.7920   19.2456 N   0  0  0  0  0  0
  -47.9984   -1.6235   18.2466 C   0  0  0  0  0  0
  -46.5491    1.9151   20.5842 C   0  0  0  0  0  0
  -47.4942    2.3014   19.4302 C   0  0  0  0  0  0
  -47.4016    1.6498   21.8468 C   0  0  0  0  0  0
  -45.5041   -0.1025   17.9475 O   0  0  0  0  0  0
  -43.9044   -1.8988   15.3726 C   0  0  0  0  0  0
  -44.3364   -0.8080   14.5807 C   0  0  0  0  0  0
  -45.6423   -0.2919   14.7497 C   0  0  0  0  0  0
  -46.5074   -0.8675   15.7078 C   0  0  0  0  0  0
  -46.0818   -1.9637   16.5065 C   0  0  0  0  0  0
  -44.7744   -2.4727   16.3304 C   0  0  0  0  0  0
  -47.0107   -2.5668   17.5217 C   0  0  0  0  0  0
  -49.0551   -2.5317   18.9125 C   0  0  0  0  0  0
  -50.4736   -2.6193   18.3201 C   0  0  0  0  0  0
  -50.5871   -2.9069   16.8010 C   0  0  0  0  0  0
  -50.1990   -1.6801   16.0667 N   0  0  0  0  0  0
  -50.8468   -1.2152   14.9514 C   0  0  0  0  0  0
  -50.2410    0.0675   14.3484 C   0  0  0  0  0  0
  -50.3838    0.1064   12.9165 O   0  0  0  0  0  0
  -49.5705    1.0677   12.2863 C   0  0  0  0  0  0
  -51.1062   -3.6814   18.9927 O   0  0  0  0  0  0
  -49.6319   -4.0647   16.3855 C   0  0  0  0  0  0
  -51.8285   -1.7519   14.4268 O   0  0  0  0  0  0
  -48.1679    0.8421   12.0598 C   0  0  0  0  0  0
  -47.4005    1.8501   11.4167 C   0  0  0  0  0  0
  -47.9961    3.0589   10.9993 C   0  0  0  0  0  0
  -49.3701    3.2880   11.2141 C   0  0  0  0  0  0
  -50.1658    2.3064   11.8523 C   0  0  0  0  0  0
  -51.6164    2.5800   12.0615 C   0  0  0  0  0  0
  -47.4757   -0.4326   12.4809 C   0  0  0  0  0  0
  -41.7151    0.5551   20.4109 C   0  0  0  0  0  0
  -42.4382    2.8325   17.9682 H   0  0  0  0  0  0
  -47.6448   -0.6745   20.1949 H   0  0  0  0  0  0
  -49.4112   -1.1008   16.3570 H   0  0  0  0  0  0
  -51.0155   -3.4923   19.9200 H   0  0  0  0  0  0
  1  5  1  0  0  0
  1 46  1  0  0  0
  2  3  1  0  0  0
  2 46  1  0  0  0
  3  4  1  0  0  0
  3 13  1  0  0  0
  4  5  1  0  0  0
  4 12  2  0  0  0
  5 47  1  0  0  0
  6  7  2  0  0  0
  6 11  1  0  0  0
  6 37  1  0  0  0
  7  8  1  0  0  0
  8  9  2  0  0  0
  9 10  1  0  0  0
 10 11  2  0  0  0
 13 14  1  0  0  0
 13 17  1  0  0  0
 14 15  1  0  0  0
 14 20  2  0  0  0
 15 16  1  0  0  0
 15 48  1  0  0  0
 16 27  1  0  0  0
 16 28  1  0  0  0
 17 18  1  0  0  0
 17 19  1  0  0  0
 21 22  2  0  0  0
 21 26  1  0  0  0
 22 23  1  0  0  0
 23 24  2  0  0  0
 24 25  1  0  0  0
 25 26  2  0  0  0
 25 27  1  0  0  0
 28 29  1  0  0  0
 29 30  1  0  0  0
 29 36  1  0  0  0
 30 31  1  0  0  0
 30 37  1  0  0  0
 31 32  1  0  0  0
 31 49  1  0  0  0
 32 33  1  0  0  0
 32 38  2  0  0  0
 33 34  1  0  0  0
 34 35  1  0  0  0
 35 39  2  0  0  0
 35 43  1  0  0  0
 36 50  1  0  0  0
 39 40  1  0  0  0
 39 45  1  0  0  0
 40 41  2  0  0  0
 41 42  1  0  0  0
 42 43  2  0  0  0
 43 44  1  0  0  0
M  END
>  <CHROM.0>
44.45976244,-154.62604197,177.01145052

>  <CHROM.1>
-120.51536965,17.24129614,164.98294009,108.15046958,47.03168261,-73.84081109
132.93008164,-33.94152943,50.62768382,-73.50852028,53.60878960,-138.97458783
72.94440177,147.31158032,-164.94055476,78.23957450,-47.67621881,-0.88511937
16.67509439,-0.00538939,0.73091411,2.31176446

>  <Name>
Lopinavir.pdb

>  <RI>
-3.98404e+08

>  <Rbt.Current_Directory>
/root/miniconda3/envs/rdock/share/rxdock-2013.1.1_148c5bd1-0/data/ligands/prepped_ligands/Lopinavir

>  <Rbt.Executable>
rbdock/0.1.0

>  <Rbt.Library>
librxdock.so/0.1.0

>  <Rbt.Parameter_File>
/root/miniconda3/envs/rdock/share/rxdock-2013.1.1_148c5bd1-0/data/scripts/dock.prm

>  <Rbt.Receptor>
def.prm

>  <SCORE>
28.3956

>  <SCORE.INTER>
11.4702

>  <SCORE.INTER.CONST>
1

>  <SCORE.INTER.POLAR>
0

>  <SCORE.INTER.REPUL>
0.189561

>  <SCORE.INTER.ROT>
15

>  <SCORE.INTER.VDW>
-9.87762

>  <SCORE.INTER.norm>
0.249352

>  <SCORE.INTRA>
15.9488

>  <SCORE.INTRA.DIHEDRAL>
8.35211

>  <SCORE.INTRA.DIHEDRAL.0>
17.6555

>  <SCORE.INTRA.POLAR>
0.227187

>  <SCORE.INTRA.POLAR.0>
-0.227187

>  <SCORE.INTRA.REPUL>
0

>  <SCORE.INTRA.REPUL.0>
0

>  <SCORE.INTRA.VDW>
11.0003

>  <SCORE.INTRA.VDW.0>
-8.98636

>  <SCORE.INTRA.norm>
0.346712

>  <SCORE.RESTR>
0.391259

>  <SCORE.RESTR.CAVITY>
0.391259

>  <SCORE.RESTR.norm>
0.00850563

>  <SCORE.SYSTEM>
0.585444

>  <SCORE.SYSTEM.CONST>
0

>  <SCORE.SYSTEM.DIHEDRAL>
3.33508

>  <SCORE.SYSTEM.VDW>
-1.0821

>  <SCORE.SYSTEM.norm>
0.012727

>  <SCORE.heavy>
46

>  <SCORE.norm>
0.617297

$$$$
Lopinavir.pdb
  RxDock  02242109553D
librxdock.so/0.1.0
 50 53  0  0  0  0  0  0  0  0999 V2000
  -52.2222   -1.7128   19.7958 C   0  0  0  0  0  0
  -50.8577   -3.3190   21.1575 C   0  0  0  0  0  0
  -51.5601   -4.4516   20.4486 N   0  0  0  0  0  0
  -52.5271   -4.2082   19.4828 C   0  0  0  0  0  0
  -52.8275   -2.9123   19.1842 N   0  0  0  0  0  0
  -49.5496   -1.8126   15.8218 C   0  0  0  0  0  0
  -48.8234   -2.5205   14.8334 C   0  0  0  0  0  0
  -48.5424   -1.9323   13.5755 C   0  0  0  0  0  0
  -48.9875   -0.6271   13.2926 C   0  0  0  0  0  0
  -49.7133    0.0882   14.2702 C   0  0  0  0  0  0
  -49.9933   -0.4987   15.5262 C   0  0  0  0  0  0
  -53.1061   -5.1115   18.9043 O   0  0  0  0  0  0
  -51.2192   -5.8761   20.7927 C   0  0  0  0  0  0
  -50.8202   -6.6332   19.4965 C   0  0  0  0  0  0
  -50.0311   -5.8820   18.6671 N   0  0  0  0  0  0
  -49.4974   -6.3414   17.3657 C   0  0  0  0  0  0
  -52.3946   -6.5934   21.5670 C   0  0  0  0  0  0
  -52.0287   -8.0033   22.0691 C   0  0  0  0  0  0
  -52.8535   -5.7469   22.7770 C   0  0  0  0  0  0
  -51.1966   -7.7857   19.2766 O   0  0  0  0  0  0
  -52.9445   -3.9814   15.7717 C   0  0  0  0  0  0
  -54.2196   -4.5869   15.8761 C   0  0  0  0  0  0
  -54.3196   -5.9639   16.1829 C   0  0  0  0  0  0
  -53.1466   -6.7266   16.3838 C   0  0  0  0  0  0
  -51.8622   -6.1264   16.2799 C   0  0  0  0  0  0
  -51.7724   -4.7491   15.9729 C   0  0  0  0  0  0
  -50.6229   -6.9477   16.4959 C   0  0  0  0  0  0
  -48.9044   -5.1704   16.5521 C   0  0  0  0  0  0
  -47.9386   -4.1794   17.2271 C   0  0  0  0  0  0
  -48.5677   -2.9490   17.9297 C   0  0  0  0  0  0
  -47.5653   -1.8581   17.9397 N   0  0  0  0  0  0
  -47.8265   -0.5788   18.3579 C   0  0  0  0  0  0
  -46.6290    0.3858   18.2504 C   0  0  0  0  0  0
  -45.3812   -0.2748   18.5311 O   0  0  0  0  0  0
  -44.7665   -0.8420   17.3984 C   0  0  0  0  0  0
  -47.2571   -4.9175   18.2127 O   0  0  0  0  0  0
  -49.8326   -2.4622   17.1625 C   0  0  0  0  0  0
  -48.9174   -0.1799   18.7796 O   0  0  0  0  0  0
  -45.3192   -0.6872   16.0793 C   0  0  0  0  0  0
  -44.6511   -1.2819   14.9755 C   0  0  0  0  0  0
  -43.4595   -2.0145   15.1586 C   0  0  0  0  0  0
  -42.9086   -2.1693   16.4466 C   0  0  0  0  0  0
  -43.5473   -1.5910   17.5698 C   0  0  0  0  0  0
  -42.9362   -1.7719   18.9177 C   0  0  0  0  0  0
  -46.5893    0.0883   15.8208 C   0  0  0  0  0  0
  -50.8239   -2.0017   20.3543 C   0  0  0  0  0  0
  -53.5446   -2.8359   18.4627 H   0  0  0  0  0  0
  -49.8343   -4.9495   19.0303 H   0  0  0  0  0  0
  -46.6043   -2.0020   17.6295 H   0  0  0  0  0  0
  -46.7685   -5.5857   17.7452 H   0  0  0  0  0  0
  1  5  1  0  0  0
  1 46  1  0  0  0
  2  3  1  0  0  0
  2 46  1  0  0  0
  3  4  1  0  0  0
  3 13  1  0  0  0
  4  5  1  0  0  0
  4 12  2  0  0  0
  5 47  1  0  0  0
  6  7  2  0  0  0
  6 11  1  0  0  0
  6 37  1  0  0  0
  7  8  1  0  0  0
  8  9  2  0  0  0
  9 10  1  0  0  0
 10 11  2  0  0  0
 13 14  1  0  0  0
 13 17  1  0  0  0
 14 15  1  0  0  0
 14 20  2  0  0  0
 15 16  1  0  0  0
 15 48  1  0  0  0
 16 27  1  0  0  0
 16 28  1  0  0  0
 17 18  1  0  0  0
 17 19  1  0  0  0
 21 22  2  0  0  0
 21 26  1  0  0  0
 22 23  1  0  0  0
 23 24  2  0  0  0
 24 25  1  0  0  0
 25 26  2  0  0  0
 25 27  1  0  0  0
 28 29  1  0  0  0
 29 30  1  0  0  0
 29 36  1  0  0  0
 30 31  1  0  0  0
 30 37  1  0  0  0
 31 32  1  0  0  0
 31 49  1  0  0  0
 32 33  1  0  0  0
 32 38  2  0  0  0
 33 34  1  0  0  0
 34 35  1  0  0  0
 35 39  2  0  0  0
 35 43  1  0  0  0
 36 50  1  0  0  0
 39 40  1  0  0  0
 39 45  1  0  0  0
 40 41  2  0  0  0
 41 42  1  0  0  0
 42 43  2  0  0  0
 43 44  1  0  0  0
M  END
>  <CHROM.0>
54.38133845,-178.00873961,-178.72204983

>  <CHROM.1>
-125.39415147,56.26556149,41.31096412,-173.83581243,49.81610496,52.27096966
47.82789375,-135.71815720,-88.56183014,-153.81460303,62.99330603,172.96963040
-70.43018765,-35.40015511,89.44616084,3.58845146,-49.39139578,-3.40021138
17.74963080,-2.60671174,-0.44140392,-1.14886916

>  <Name>
Lopinavir.pdb

>  <RI>
-3.98404e+08

>  <Rbt.Current_Directory>
/root/miniconda3/envs/rdock/share/rxdock-2013.1.1_148c5bd1-0/data/ligands/prepped_ligands/Lopinavir

>  <Rbt.Executable>
rbdock/0.1.0

>  <Rbt.Library>
librxdock.so/0.1.0

>  <Rbt.Parameter_File>
/root/miniconda3/envs/rdock/share/rxdock-2013.1.1_148c5bd1-0/data/scripts/dock.prm

>  <Rbt.Receptor>
def.prm

>  <SCORE>
9.67996

>  <SCORE.INTER>
-8.34577

>  <SCORE.INTER.CONST>
1

>  <SCORE.INTER.POLAR>
-0.895304

>  <SCORE.INTER.REPUL>
0

>  <SCORE.INTER.ROT>
15

>  <SCORE.INTER.VDW>
-25.7017

>  <SCORE.INTER.norm>
-0.18143

>  <SCORE.INTRA>
17.9649

>  <SCORE.INTRA.DIHEDRAL>
0.758114

>  <SCORE.INTRA.DIHEDRAL.0>
17.6555

>  <SCORE.INTRA.POLAR>
0.227187

>  <SCORE.INTRA.POLAR.0>
-0.227187

>  <SCORE.INTRA.REPUL>
0

>  <SCORE.INTRA.REPUL.0>
0

>  <SCORE.INTRA.VDW>
16.8134

>  <SCORE.INTRA.VDW.0>
-8.98636

>  <SCORE.INTRA.norm>
0.39054

>  <SCORE.RESTR>
1.10383

>  <SCORE.RESTR.CAVITY>
1.10383

>  <SCORE.RESTR.norm>
0.0239964

>  <SCORE.SYSTEM>
-1.04296

>  <SCORE.SYSTEM.CONST>
0

>  <SCORE.SYSTEM.DIHEDRAL>
0.10416

>  <SCORE.SYSTEM.POLAR>
-0.00504542

>  <SCORE.SYSTEM.VDW>
-1.07788

>  <SCORE.SYSTEM.norm>
-0.022673

>  <SCORE.heavy>
46

>  <SCORE.norm>
0.210434

$$$$
Lopinavir.pdb
  RxDock  02242109553D
librxdock.so/0.1.0
 50 53  0  0  0  0  0  0  0  0999 V2000
  -44.8616    0.8088   17.7631 C   0  0  0  0  0  0
  -45.9303   -1.3702   18.3995 C   0  0  0  0  0  0
  -47.2395   -0.6350   18.5545 N   0  0  0  0  0  0
  -47.3305    0.7312   18.3260 C   0  0  0  0  0  0
  -46.2018    1.3983   17.9518 N   0  0  0  0  0  0
  -54.5680   -5.5720   15.5373 C   0  0  0  0  0  0
  -54.3859   -6.9457   15.8289 C   0  0  0  0  0  0
  -55.4928   -7.7818   16.1169 C   0  0  0  0  0  0
  -56.7963   -7.2504   16.1171 C   0  0  0  0  0  0
  -56.9902   -5.8817   15.8284 C   0  0  0  0  0  0
  -55.8852   -5.0470   15.5404 C   0  0  0  0  0  0
  -48.3790    1.3402   18.4507 O   0  0  0  0  0  0
  -48.4749   -1.3857   18.9717 C   0  0  0  0  0  0
  -49.5746   -1.2005   17.8906 C   0  0  0  0  0  0
  -49.2278   -1.7482   16.6844 N   0  0  0  0  0  0
  -50.0769   -1.7273   15.4729 C   0  0  0  0  0  0
  -48.9698   -0.9548   20.4087 C   0  0  0  0  0  0
  -50.0357   -1.8978   20.9993 C   0  0  0  0  0  0
  -47.7842   -0.8759   21.3983 C   0  0  0  0  0  0
  -50.6315   -0.6155   18.1338 O   0  0  0  0  0  0
  -47.0938    0.5608   12.4321 C   0  0  0  0  0  0
  -45.9175    0.5464   13.2192 C   0  0  0  0  0  0
  -45.8282   -0.3221   14.3318 C   0  0  0  0  0  0
  -46.9131   -1.1703   14.6507 C   0  0  0  0  0  0
  -48.0983   -1.1614   13.8660 C   0  0  0  0  0  0
  -48.1781   -0.2897   12.7555 C   0  0  0  0  0  0
  -49.2444   -2.0678   14.2151 C   0  0  0  0  0  0
  -51.1985   -2.7861   15.5496 C   0  0  0  0  0  0
  -50.8520   -4.2808   15.4212 C   0  0  0  0  0  0
  -51.9982   -5.2945   15.6698 C   0  0  0  0  0  0
  -52.0513   -5.5874   17.1212 N   0  0  0  0  0  0
  -52.2232   -4.6341   18.0914 C   0  0  0  0  0  0
  -52.2188   -5.1809   19.5326 C   0  0  0  0  0  0
  -50.8890   -5.5029   19.9800 O   0  0  0  0  0  0
  -50.2716   -6.5330   19.2449 C   0  0  0  0  0  0
  -50.4170   -4.4621   14.0951 O   0  0  0  0  0  0
  -53.3675   -4.6992   15.2268 C   0  0  0  0  0  0
  -52.3593   -3.4243   17.8799 O   0  0  0  0  0  0
  -50.5919   -7.9179   19.4657 C   0  0  0  0  0  0
  -49.9360   -8.9114   18.6903 C   0  0  0  0  0  0
  -48.9836   -8.5558   17.7122 C   0  0  0  0  0  0
  -48.6652   -7.2015   17.4865 C   0  0  0  0  0  0
  -49.2984   -6.1845   18.2407 C   0  0  0  0  0  0
  -48.9401   -4.7619   17.9746 C   0  0  0  0  0  0
  -51.6049   -8.3593   20.4955 C   0  0  0  0  0  0
  -44.9378   -0.6870   17.4355 C   0  0  0  0  0  0
  -46.3695    2.3937   17.8043 H   0  0  0  0  0  0
  -48.3067   -2.1860   16.6884 H   0  0  0  0  0  0
  -51.9613   -6.5356   17.4865 H   0  0  0  0  0  0
  -50.1820   -5.3804   14.0221 H   0  0  0  0  0  0
  1  5  1  0  0  0
  1 46  1  0  0  0
  2  3  1  0  0  0
  2 46  1  0  0  0
  3  4  1  0  0  0
  3 13  1  0  0  0
  4  5  1  0  0  0
  4 12  2  0  0  0
  5 47  1  0  0  0
  6  7  2  0  0  0
  6 11  1  0  0  0
  6 37  1  0  0  0
  7  8  1  0  0  0
  8  9  2  0  0  0
  9 10  1  0  0  0
 10 11  2  0  0  0
 13 14  1  0  0  0
 13 17  1  0  0  0
 14 15  1  0  0  0
 14 20  2  0  0  0
 15 16  1  0  0  0
 15 48  1  0  0  0
 16 27  1  0  0  0
 16 28  1  0  0  0
 17 18  1  0  0  0
 17 19  1  0  0  0
 21 22  2  0  0  0
 21 26  1  0  0  0
 22 23  1  0  0  0
 23 24  2  0  0  0
 24 25  1  0  0  0
 25 26  2  0  0  0
 25 27  1  0  0  0
 28 29  1  0  0  0
 29 30  1  0  0  0
 29 36  1  0  0  0
 30 31  1  0  0  0
 30 37  1  0  0  0
 31 32  1  0  0  0
 31 49  1  0  0  0
 32 33  1  0  0  0
 32 38  2  0  0  0
 33 34  1  0  0  0
 34 35  1  0  0  0
 35 39  2  0  0  0
 35 43  1  0  0  0
 36 50  1  0  0  0
 39 40  1  0  0  0
 39 45  1  0  0  0
 40 41  2  0  0  0
 41 42  1  0  0  0
 42 43  2  0  0  0
 43 44  1  0  0  0
M  END
>  <CHROM.0>
-163.81764092,-54.00358008,12.71720987

>  <CHROM.1>
-122.24326449,-17.55311444,64.16436560,-167.54927007,164.14806933,-60.73538696
-71.42133504,72.15126125,173.14319501,-87.27931923,178.59546837,57.40307628
-175.13346444,75.89219741,-63.46395095,-78.36981114,-49.99663317,-3.33268983
17.11496188,-0.39208475,0.71222459,2.07146140

>  <Name>
Lopinavir.pdb

>  <RI>
-3.98404e+08

>  <Rbt.Current_Directory>
/root/miniconda3/envs/rdock/share/rxdock-2013.1.1_148c5bd1-0/data/ligands/prepped_ligands/Lopinavir

>  <Rbt.Executable>
rbdock/0.1.0

>  <Rbt.Library>
librxdock.so/0.1.0

>  <Rbt.Parameter_File>
/root/miniconda3/envs/rdock/share/rxdock-2013.1.1_148c5bd1-0/data/scripts/dock.prm

>  <Rbt.Receptor>
def.prm

>  <SCORE>
10.3826

>  <SCORE.INTER>
4.14122

>  <SCORE.INTER.CONST>
1

>  <SCORE.INTER.POLAR>
-0.0787395

>  <SCORE.INTER.REPUL>
0.0444972

>  <SCORE.INTER.ROT>
15

>  <SCORE.INTER.VDW>
-16.2136

>  <SCORE.INTER.norm>
0.0900265

>  <SCORE.INTRA>
3.28534

>  <SCORE.INTRA.DIHEDRAL>
-0.791947

>  <SCORE.INTRA.DIHEDRAL.0>
17.6555

>  <SCORE.INTRA.POLAR>
0.227187

>  <SCORE.INTRA.POLAR.0>
-0.227187

>  <SCORE.INTRA.REPUL>
0

>  <SCORE.INTRA.REPUL.0>
0

>  <SCORE.INTRA.VDW>
2.90888

>  <SCORE.INTRA.VDW.0>
-8.98636

>  <SCORE.INTRA.norm>
0.0714205

>  <SCORE.RESTR>
1.33286

>  <SCORE.RESTR.CAVITY>
1.33286

>  <SCORE.RESTR.norm>
0.0289752

>  <SCORE.SYSTEM>
1.62318

>  <SCORE.SYSTEM.CONST>
0

>  <SCORE.SYSTEM.DIHEDRAL>
3.99887

>  <SCORE.SYSTEM.VDW>
-0.376253

>  <SCORE.SYSTEM.norm>
0.0352866

>  <SCORE.heavy>
46

>  <SCORE.norm>
0.225709

$$$$
Lopinavir.pdb
  RxDock  02242109553D
librxdock.so/0.1.0
 50 53  0  0  0  0  0  0  0  0999 V2000
  -50.2861   -8.8532   19.3952 C   0  0  0  0  0  0
  -49.7056   -6.5965   20.3258 C   0  0  0  0  0  0
  -50.9627   -6.0564   19.6882 N   0  0  0  0  0  0
  -51.8094   -6.8772   18.9556 C   0  0  0  0  0  0
  -51.4786   -8.1936   18.8275 N   0  0  0  0  0  0
  -46.0516    1.6042   19.0472 C   0  0  0  0  0  0
  -46.3962    1.8108   20.4051 C   0  0  0  0  0  0
  -45.3944    1.9514   21.3970 C   0  0  0  0  0  0
  -44.0344    1.8852   21.0397 C   0  0  0  0  0  0
  -43.6788    1.6788   19.6887 C   0  0  0  0  0  0
  -44.6788    1.5390   18.6983 C   0  0  0  0  0  0
  -52.8259   -6.4558   18.4312 O   0  0  0  0  0  0
  -51.3112   -4.6003   19.8362 C   0  0  0  0  0  0
  -50.4024   -3.7595   18.8984 C   0  0  0  0  0  0
  -51.1068   -2.8507   18.1549 N   0  0  0  0  0  0
  -50.5079   -1.9133   17.1792 C   0  0  0  0  0  0
  -51.2243   -4.1228   21.3396 C   0  0  0  0  0  0
  -50.9987   -2.6061   21.4901 C   0  0  0  0  0  0
  -52.5071   -4.5058   22.1136 C   0  0  0  0  0  0
  -49.1821   -3.9258   18.8576 O   0  0  0  0  0  0
  -49.6353   -3.1052   12.5351 C   0  0  0  0  0  0
  -49.5729   -4.5079   12.7140 C   0  0  0  0  0  0
  -50.0595   -5.0851   13.9101 C   0  0  0  0  0  0
  -50.6053   -4.2586   14.9185 C   0  0  0  0  0  0
  -50.6709   -2.8489   14.7471 C   0  0  0  0  0  0
  -50.1820   -2.2812   13.5479 C   0  0  0  0  0  0
  -51.2535   -1.9812   15.8262 C   0  0  0  0  0  0
  -50.6161   -0.4499   17.6604 C   0  0  0  0  0  0
  -49.4490    0.5248   17.4191 C   0  0  0  0  0  0
  -48.1868    0.3460   18.3012 C   0  0  0  0  0  0
  -47.5833   -0.9698   17.9856 N   0  0  0  0  0  0
  -46.5004   -1.4954   18.6419 C   0  0  0  0  0  0
  -46.0389   -2.8688   18.1157 C   0  0  0  0  0  0
  -45.2557   -2.7471   16.9140 O   0  0  0  0  0  0
  -45.8654   -1.9708   15.9098 C   0  0  0  0  0  0
  -49.0537    0.3280   16.0829 O   0  0  0  0  0  0
  -47.1425    1.4623   18.0033 C   0  0  0  0  0  0
  -45.9010   -0.9466   19.5728 O   0  0  0  0  0  0
  -47.1146   -2.3551   15.3089 C   0  0  0  0  0  0
  -47.6806   -1.5285   14.3015 C   0  0  0  0  0  0
  -47.0360   -0.3430   13.8899 C   0  0  0  0  0  0
  -45.8133    0.0435   14.4747 C   0  0  0  0  0  0
  -45.2196   -0.7558   15.4810 C   0  0  0  0  0  0
  -43.9271   -0.3163   16.0803 C   0  0  0  0  0  0
  -47.8526   -3.6104   15.7104 C   0  0  0  0  0  0
  -49.7551   -8.1093   20.6262 C   0  0  0  0  0  0
  -52.1615   -8.7141   18.2767 H   0  0  0  0  0  0
  -52.1107   -2.8726   18.3335 H   0  0  0  0  0  0
  -47.9485   -1.5705   17.2464 H   0  0  0  0  0  0
  -49.7679    0.6585   15.5494 H   0  0  0  0  0  0
  1  5  1  0  0  0
  1 46  1  0  0  0
  2  3  1  0  0  0
  2 46  1  0  0  0
  3  4  1  0  0  0
  3 13  1  0  0  0
  4  5  1  0  0  0
  4 12  2  0  0  0
  5 47  1  0  0  0
  6  7  2  0  0  0
  6 11  1  0  0  0
  6 37  1  0  0  0
  7  8  1  0  0  0
  8  9  2  0  0  0
  9 10  1  0  0  0
 10 11  2  0  0  0
 13 14  1  0  0  0
 13 17  1  0  0  0
 14 15  1  0  0  0
 14 20  2  0  0  0
 15 16  1  0  0  0
 15 48  1  0  0  0
 16 27  1  0  0  0
 16 28  1  0  0  0
 17 18  1  0  0  0
 17 19  1  0  0  0
 21 22  2  0  0  0
 21 26  1  0  0  0
 22 23  1  0  0  0
 23 24  2  0  0  0
 24 25  1  0  0  0
 25 26  2  0  0  0
 25 27  1  0  0  0
 28 29  1  0  0  0
 29 30  1  0  0  0
 29 36  1  0  0  0
 30 31  1  0  0  0
 30 37  1  0  0  0
 31 32  1  0  0  0
 31 49  1  0  0  0
 32 33  1  0  0  0
 32 38  2  0  0  0
 33 34  1  0  0  0
 34 35  1  0  0  0
 35 39  2  0  0  0
 35 43  1  0  0  0
 36 50  1  0  0  0
 39 40  1  0  0  0
 39 45  1  0  0  0
 40 41  2  0  0  0
 41 42  1  0  0  0
 42 43  2  0  0  0
 43 44  1  0  0  0
M  END
>  <CHROM.0>
88.65903115,58.42408567,179.80109532

>  <CHROM.1>
75.70620910,-55.12532824,131.84221186,156.38794984,129.83427394,-96.90698522
141.19321835,65.26432776,-73.78322496,64.62339267,68.70832226,-175.58888756
164.44941939,79.29719354,-51.41466909,-62.36549112,-48.57364262,-2.45477771
17.70580495,-3.02102647,-0.87740194,-1.56002114

>  <Name>
Lopinavir.pdb

>  <RI>
-3.98404e+08

>  <Rbt.Current_Directory>
/root/miniconda3/envs/rdock/share/rxdock-2013.1.1_148c5bd1-0/data/ligands/prepped_ligands/Lopinavir

>  <Rbt.Executable>
rbdock/0.1.0

>  <Rbt.Library>
librxdock.so/0.1.0

>  <Rbt.Parameter_File>
/root/miniconda3/envs/rdock/share/rxdock-2013.1.1_148c5bd1-0/data/scripts/dock.prm

>  <Rbt.Receptor>
def.prm

>  <SCORE>
34.6045

>  <SCORE.INTER>
26.3488

>  <SCORE.INTER.CONST>
1

>  <SCORE.INTER.POLAR>
0

>  <SCORE.INTER.REPUL>
0

>  <SCORE.INTER.ROT>
15

>  <SCORE.INTER.VDW>
5.94882

>  <SCORE.INTER.norm>
0.572801

>  <SCORE.INTRA>
7.68943

>  <SCORE.INTRA.DIHEDRAL>
7.60712

>  <SCORE.INTRA.DIHEDRAL.0>
17.6555

>  <SCORE.INTRA.POLAR>
0.227187

>  <SCORE.INTRA.POLAR.0>
-0.227187

>  <SCORE.INTRA.REPUL>
0

>  <SCORE.INTRA.REPUL.0>
0

>  <SCORE.INTRA.VDW>
3.11344

>  <SCORE.INTRA.VDW.0>
-8.98636

>  <SCORE.INTRA.norm>
0.167162

>  <SCORE.RESTR>
0.380802

>  <SCORE.RESTR.CAVITY>
0.380802

>  <SCORE.RESTR.norm>
0.0082783

>  <SCORE.SYSTEM>
0.185481

>  <SCORE.SYSTEM.CONST>
0

>  <SCORE.SYSTEM.DIHEDRAL>
1.67227

>  <SCORE.SYSTEM.POLAR>
-0.00148251

>  <SCORE.SYSTEM.VDW>
-0.645611

>  <SCORE.SYSTEM.norm>
0.0040322

>  <SCORE.heavy>
46

>  <SCORE.norm>
0.752273

$$$$
Lopinavir.pdb
  RxDock  02242109553D
librxdock.so/0.1.0
 50 53  0  0  0  0  0  0  0  0999 V2000
  -50.1695   -6.4246   20.3212 C   0  0  0  0  0  0
  -52.0244   -5.6167   18.8372 C   0  0  0  0  0  0
  -51.3438   -6.3077   17.6805 N   0  0  0  0  0  0
  -50.1550   -7.0032   17.8547 C   0  0  0  0  0  0
  -49.6141   -7.0512   19.1053 N   0  0  0  0  0  0
  -50.2570    0.2965   18.0310 C   0  0  0  0  0  0
  -51.0147   -0.8998   18.0349 C   0  0  0  0  0  0
  -52.3431   -0.9185   18.5273 C   0  0  0  0  0  0
  -52.9277    0.2622   19.0231 C   0  0  0  0  0  0
  -52.1814    1.4610   19.0249 C   0  0  0  0  0  0
  -50.8555    1.4799   18.5328 C   0  0  0  0  0  0
  -49.5909   -7.5630   16.9305 O   0  0  0  0  0  0
  -51.9522   -6.2418   16.3060 C   0  0  0  0  0  0
  -50.9914   -5.4728   15.3584 C   0  0  0  0  0  0
  -50.4383   -4.3681   15.9491 N   0  0  0  0  0  0
  -49.4860   -3.4468   15.2905 C   0  0  0  0  0  0
  -53.4000   -5.6103   16.3315 C   0  0  0  0  0  0
  -53.4855   -4.2418   15.6287 C   0  0  0  0  0  0
  -54.4270   -6.5622   15.6754 C   0  0  0  0  0  0
  -50.7787   -5.8499   14.2048 O   0  0  0  0  0  0
  -48.0394    0.0638   12.7082 C   0  0  0  0  0  0
  -49.0541    1.0452   12.6047 C   0  0  0  0  0  0
  -50.3891    0.7114   12.9315 C   0  0  0  0  0  0
  -50.7018   -0.5989   13.3597 C   0  0  0  0  0  0
  -49.6888   -1.5906   13.4656 C   0  0  0  0  0  0
  -48.3571   -1.2473   13.1367 C   0  0  0  0  0  0
  -50.0338   -2.9797   13.9221 C   0  0  0  0  0  0
  -49.2647   -2.1682   16.1278 C   0  0  0  0  0  0
  -48.4114   -2.2282   17.4080 C   0  0  0  0  0  0
  -47.9503   -0.8772   18.0124 C   0  0  0  0  0  0
  -46.5500   -0.6356   17.5933 N   0  0  0  0  0  0
  -45.5635   -1.5872   17.6256 C   0  0  0  0  0  0
  -44.1797   -1.0893   17.1642 C   0  0  0  0  0  0
  -43.6771   -0.0401   18.0120 O   0  0  0  0  0  0
  -44.0597   -0.1624   19.3616 C   0  0  0  0  0  0
  -49.2126   -2.8642   18.3745 O   0  0  0  0  0  0
  -48.8390    0.2917   17.4934 C   0  0  0  0  0  0
  -45.7174   -2.7551   17.9991 O   0  0  0  0  0  0
  -44.9090    0.8079   19.9991 C   0  0  0  0  0  0
  -45.2616    0.6280   21.3636 C   0  0  0  0  0  0
  -44.7929   -0.4852   22.0926 C   0  0  0  0  0  0
  -43.9627   -1.4429   21.4760 C   0  0  0  0  0  0
  -43.5904   -1.2958   20.1182 C   0  0  0  0  0  0
  -42.7132   -2.3285   19.4963 C   0  0  0  0  0  0
  -45.4441    2.0174   19.2696 C   0  0  0  0  0  0
  -51.6854   -6.2212   20.2159 C   0  0  0  0  0  0
  -48.7460   -7.5863   19.1330 H   0  0  0  0  0  0
  -50.7458   -4.2266   16.9112 H   0  0  0  0  0  0
  -46.2358    0.2720   17.2497 H   0  0  0  0  0  0
  -48.6802   -2.9150   19.1606 H   0  0  0  0  0  0
  1  5  1  0  0  0
  1 46  1  0  0  0
  2  3  1  0  0  0
  2 46  1  0  0  0
  3  4  1  0  0  0
  3 13  1  0  0  0
  4  5  1  0  0  0
  4 12  2  0  0  0
  5 47  1  0  0  0
  6  7  2  0  0  0
  6 11  1  0  0  0
  6 37  1  0  0  0
  7  8  1  0  0  0
  8  9  2  0  0  0
  9 10  1  0  0  0
 10 11  2  0  0  0
 13 14  1  0  0  0
 13 17  1  0  0  0
 14 15  1  0  0  0
 14 20  2  0  0  0
 15 16  1  0  0  0
 15 48  1  0  0  0
 16 27  1  0  0  0
 16 28  1  0  0  0
 17 18  1  0  0  0
 17 19  1  0  0  0
 21 22  2  0  0  0
 21 26  1  0  0  0
 22 23  1  0  0  0
 23 24  2  0  0  0
 24 25  1  0  0  0
 25 26  2  0  0  0
 25 27  1  0  0  0
 28 29  1  0  0  0
 29 30  1  0  0  0
 29 36  1  0  0  0
 30 31  1  0  0  0
 30 37  1  0  0  0
 31 32  1  0  0  0
 31 49  1  0  0  0
 32 33  1  0  0  0
 32 38  2  0  0  0
 33 34  1  0  0  0
 34 35  1  0  0  0
 35 39  2  0  0  0
 35 43  1  0  0  0
 36 50  1  0  0  0
 39 40  1  0  0  0
 39 45  1  0  0  0
 40 41  2  0  0  0
 41 42  1  0  0  0
 42 43  2  0  0  0
 43 44  1  0  0  0
M  END
>  <CHROM.0>
62.26495434,178.12859176,-162.01211236

>  <CHROM.1>
115.76823062,-46.90939752,-41.83537726,112.76341173,51.04840731,146.98140096
74.16688632,-112.62247453,165.91295480,-99.51995830,179.03512137,-44.92295233
70.38113068,62.08719893,33.10388735,-115.34912338,-48.90431700,-2.40883261
17.34956769,-2.87435945,-0.64838792,-0.62469746

>  <Name>
Lopinavir.pdb

>  <RI>
-3.98404e+08

>  <Rbt.Current_Directory>
/root/miniconda3/envs/rdock/share/rxdock-2013.1.1_148c5bd1-0/data/ligands/prepped_ligands/Lopinavir

>  <Rbt.Executable>
rbdock/0.1.0

>  <Rbt.Library>
librxdock.so/0.1.0

>  <Rbt.Parameter_File>
/root/miniconda3/envs/rdock/share/rxdock-2013.1.1_148c5bd1-0/data/scripts/dock.prm

>  <Rbt.Receptor>
def.prm

>  <SCORE>
9.41943

>  <SCORE.INTER>
-8.54241

>  <SCORE.INTER.CONST>
1

>  <SCORE.INTER.POLAR>
-0.227117

>  <SCORE.INTER.REPUL>
0.0544971

>  <SCORE.INTER.ROT>
15

>  <SCORE.INTER.VDW>
-28.4427

>  <SCORE.INTER.norm>
-0.185705

>  <SCORE.INTRA>
17.4207

>  <SCORE.INTRA.DIHEDRAL>
11.5779

>  <SCORE.INTRA.DIHEDRAL.0>
17.6555

>  <SCORE.INTRA.POLAR>
0.227187

>  <SCORE.INTRA.POLAR.0>
-0.227187

>  <SCORE.INTRA.REPUL>
0

>  <SCORE.INTRA.REPUL.0>
0

>  <SCORE.INTRA.VDW>
10.8593

>  <SCORE.INTRA.VDW.0>
-8.98636

>  <SCORE.INTRA.norm>
0.378711

>  <SCORE.RESTR>
1.15217

>  <SCORE.RESTR.CAVITY>
1.15217

>  <SCORE.RESTR.norm>
0.0250472

>  <SCORE.SYSTEM>
-0.611035

>  <SCORE.SYSTEM.CONST>
0

>  <SCORE.SYSTEM.DIHEDRAL>
0.756863

>  <SCORE.SYSTEM.POLAR>
-0.0195843

>  <SCORE.SYSTEM.VDW>
-0.92288

>  <SCORE.SYSTEM.norm>
-0.0132834

>  <SCORE.heavy>
46

>  <SCORE.norm>
0.20477

$$$$
Lopinavir.pdb
  RxDock  02242109553D
librxdock.so/0.1.0
 50 53  0  0  0  0  0  0  0  0999 V2000
  -46.5240   -8.4476   18.5922 C   0  0  0  0  0  0
  -48.1082   -6.5177   18.8400 C   0  0  0  0  0  0
  -49.2271   -7.4349   18.4095 N   0  0  0  0  0  0
  -48.9876   -8.7654   18.0941 C   0  0  0  0  0  0
  -47.7088   -9.2292   18.1865 N   0  0  0  0  0  0
  -50.1666   -0.4553   18.4841 C   0  0  0  0  0  0
  -50.2703   -1.4901   19.4453 C   0  0  0  0  0  0
  -51.5264   -1.8544   19.9900 C   0  0  0  0  0  0
  -52.6942   -1.1844   19.5785 C   0  0  0  0  0  0
  -52.6029   -0.1503   18.6212 C   0  0  0  0  0  0
  -51.3490    0.2130   18.0769 C   0  0  0  0  0  0
  -49.8793   -9.5178   17.7410 O   0  0  0  0  0  0
  -50.6321   -6.9061   18.3093 C   0  0  0  0  0  0
  -50.5945   -5.4598   17.7442 C   0  0  0  0  0  0
  -49.7767   -5.3398   16.6525 N   0  0  0  0  0  0
  -49.5466   -4.0841   15.9045 C   0  0  0  0  0  0
  -51.3937   -6.9892   19.6908 C   0  0  0  0  0  0
  -51.5200   -8.4244   20.2370 C   0  0  0  0  0  0
  -50.6917   -6.1192   20.7593 C   0  0  0  0  0  0
  -51.2455   -4.5467   18.2549 O   0  0  0  0  0  0
  -53.5784   -6.3448   15.1875 C   0  0  0  0  0  0
  -54.5464   -5.6872   15.9838 C   0  0  0  0  0  0
  -54.2849   -4.3871   16.4755 C   0  0  0  0  0  0
  -53.0598   -3.7524   16.1685 C   0  0  0  0  0  0
  -52.0820   -4.4062   15.3702 C   0  0  0  0  0  0
  -52.3526   -5.7058   14.8833 C   0  0  0  0  0  0
  -50.7837   -3.7209   15.0509 C   0  0  0  0  0  0
  -49.3133   -2.8919   16.8581 C   0  0  0  0  0  0
  -47.8994   -2.3040   17.0188 C   0  0  0  0  0  0
  -47.7170   -1.1842   18.0751 C   0  0  0  0  0  0
  -46.3863   -0.5659   17.8703 N   0  0  0  0  0  0
  -45.9676    0.5804   18.4949 C   0  0  0  0  0  0
  -44.5512    1.0428   18.0999 C   0  0  0  0  0  0
  -43.7278    1.2941   19.2536 O   0  0  0  0  0  0
  -43.7635    0.2675   20.2167 C   0  0  0  0  0  0
  -47.0779   -3.3790   17.4064 O   0  0  0  0  0  0
  -48.8111   -0.0878   17.9119 C   0  0  0  0  0  0
  -46.6378    1.2326   19.3028 O   0  0  0  0  0  0
  -44.3865    0.4540   21.4999 C   0  0  0  0  0  0
  -44.3918   -0.6210   22.4287 C   0  0  0  0  0  0
  -43.7993   -1.8602   22.1066 C   0  0  0  0  0  0
  -43.1891   -2.0536   20.8510 C   0  0  0  0  0  0
  -43.1644   -1.0046   19.9007 C   0  0  0  0  0  0
  -42.5129   -1.2438   18.5811 C   0  0  0  0  0  0
  -45.0397    1.7558   21.9000 C   0  0  0  0  0  0
  -46.9048   -7.2497   19.4702 C   0  0  0  0  0  0
  -47.6345  -10.2160   17.9388 H   0  0  0  0  0  0
  -49.3238   -6.2144   16.3878 H   0  0  0  0  0  0
  -45.6930   -0.9682   17.2394 H   0  0  0  0  0  0
  -46.1850   -3.0581   17.3467 H   0  0  0  0  0  0
  1  5  1  0  0  0
  1 46  1  0  0  0
  2  3  1  0  0  0
  2 46  1  0  0  0
  3  4  1  0  0  0
  3 13  1  0  0  0
  4  5  1  0  0  0
  4 12  2  0  0  0
  5 47  1  0  0  0
  6  7  2  0  0  0
  6 11  1  0  0  0
  6 37  1  0  0  0
  7  8  1  0  0  0
  8  9  2  0  0  0
  9 10  1  0  0  0
 10 11  2  0  0  0
 13 14  1  0  0  0
 13 17  1  0  0  0
 14 15  1  0  0  0
 14 20  2  0  0  0
 15 16  1  0  0  0
 15 48  1  0  0  0
 16 27  1  0  0  0
 16 28  1  0  0  0
 17 18  1  0  0  0
 17 19  1  0  0  0
 21 22  2  0  0  0
 21 26  1  0  0  0
 22 23  1  0  0  0
 23 24  2  0  0  0
 24 25  1  0  0  0
 25 26  2  0  0  0
 25 27  1  0  0  0
 28 29  1  0  0  0
 29 30  1  0  0  0
 29 36  1  0  0  0
 30 31  1  0  0  0
 30 37  1  0  0  0
 31 32  1  0  0  0
 31 49  1  0  0  0
 32 33  1  0  0  0
 32 38  2  0  0  0
 33 34  1  0  0  0
 34 35  1  0  0  0
 35 39  2  0  0  0
 35 43  1  0  0  0
 36 50  1  0  0  0
 39 40  1  0  0  0
 39 45  1  0  0  0
 40 41  2  0  0  0
 41 42  1  0  0  0
 42 43  2  0  0  0
 43 44  1  0  0  0
M  END
>  <CHROM.0>
-27.30610766,-62.92513131,61.90487190

>  <CHROM.1>
38.20744219,19.49721263,46.39326343,-60.16947759,-73.43537882,16.20104438
106.68005467,98.50605362,-175.26421152,-168.02125709,169.60773410,170.14004435
78.37447584,-128.99240050,47.87960769,-110.80035430,-48.65920154,-3.39780784
18.43577361,-2.41393335,-0.37000713,-0.00321905

>  <Name>
Lopinavir.pdb

>  <RI>
-3.98404e+08

>  <Rbt.Current_Directory>
/root/miniconda3/envs/rdock/share/rxdock-2013.1.1_148c5bd1-0/data/ligands/prepped_ligands/Lopinavir

>  <Rbt.Executable>
rbdock/0.1.0

>  <Rbt.Library>
librxdock.so/0.1.0

>  <Rbt.Parameter_File>
/root/miniconda3/envs/rdock/share/rxdock-2013.1.1_148c5bd1-0/data/scripts/dock.prm

>  <Rbt.Receptor>
def.prm

>  <SCORE>
2.31381

>  <SCORE.INTER>
-6.83018

>  <SCORE.INTER.CONST>
1

>  <SCORE.INTER.POLAR>
-0.453008

>  <SCORE.INTER.REPUL>
0

>  <SCORE.INTER.ROT>
15

>  <SCORE.INTER.VDW>
-25.69

>  <SCORE.INTER.norm>
-0.148482

>  <SCORE.INTRA>
8.78986

>  <SCORE.INTRA.DIHEDRAL>
7.60962

>  <SCORE.INTRA.DIHEDRAL.0>
17.6555

>  <SCORE.INTRA.POLAR>
0.227187

>  <SCORE.INTRA.POLAR.0>
-0.227187

>  <SCORE.INTRA.REPUL>
0

>  <SCORE.INTRA.REPUL.0>
0

>  <SCORE.INTRA.VDW>
4.21261

>  <SCORE.INTRA.VDW.0>
-8.98636

>  <SCORE.INTRA.norm>
0.191084

>  <SCORE.RESTR>
0.0363273

>  <SCORE.RESTR.CAVITY>
0.0363273

>  <SCORE.RESTR.norm>
0.000789724

>  <SCORE.SYSTEM>
0.317813

>  <SCORE.SYSTEM.CONST>
0

>  <SCORE.SYSTEM.DIHEDRAL>
2.08871

>  <SCORE.SYSTEM.POLAR>
-0.00536313

>  <SCORE.SYSTEM.VDW>
-0.708307

>  <SCORE.SYSTEM.norm>
0.00690899

>  <SCORE.heavy>
46

>  <SCORE.norm>
0.0503003

$$$$
Lopinavir.pdb
  RxDock  02242109563D
librxdock.so/0.1.0
 50 53  0  0  0  0  0  0  0  0999 V2000
  -52.7890   -7.6846   21.6666 C   0  0  0  0  0  0
  -51.0837   -8.5512   20.0428 C   0  0  0  0  0  0
  -50.6543   -7.1251   19.7968 N   0  0  0  0  0  0
  -51.2665   -6.0648   20.4513 C   0  0  0  0  0  0
  -52.2700   -6.3439   21.3311 N   0  0  0  0  0  0
  -47.6622   -0.4723   14.2097 C   0  0  0  0  0  0
  -47.5888    0.0799   12.9078 C   0  0  0  0  0  0
  -48.7109    0.7171   12.3229 C   0  0  0  0  0  0
  -49.9213    0.8073   13.0361 C   0  0  0  0  0  0
  -50.0065    0.2596   14.3350 C   0  0  0  0  0  0
  -48.8861   -0.3760   14.9191 C   0  0  0  0  0  0
  -50.9343   -4.9076   20.2608 O   0  0  0  0  0  0
  -49.5477   -6.8343   18.8199 C   0  0  0  0  0  0
  -50.1493   -6.1797   17.5464 C   0  0  0  0  0  0
  -49.3123   -5.2547   16.9817 N   0  0  0  0  0  0
  -49.6169   -4.4748   15.7617 C   0  0  0  0  0  0
  -48.7011   -8.1256   18.4861 C   0  0  0  0  0  0
  -49.3506   -9.0266   17.4183 C   0  0  0  0  0  0
  -47.2814   -7.7439   18.0063 C   0  0  0  0  0  0
  -51.2652   -6.4876   17.1241 O   0  0  0  0  0  0
  -52.0093   -1.1882   18.0547 C   0  0  0  0  0  0
  -52.7445   -1.8532   19.0649 C   0  0  0  0  0  0
  -52.9475   -3.2504   18.9807 C   0  0  0  0  0  0
  -52.4148   -3.9738   17.8894 C   0  0  0  0  0  0
  -51.6760   -3.3134   16.8702 C   0  0  0  0  0  0
  -51.4783   -1.9164   16.9633 C   0  0  0  0  0  0
  -51.1148   -4.0935   15.7155 C   0  0  0  0  0  0
  -48.8305   -3.1461   15.7284 C   0  0  0  0  0  0
  -47.3543   -3.1177   16.1648 C   0  0  0  0  0  0
  -46.6681   -1.7298   16.2417 C   0  0  0  0  0  0
  -45.3516   -1.8994   16.8999 N   0  0  0  0  0  0
  -45.1416   -1.7518   18.2467 C   0  0  0  0  0  0
  -43.6795   -1.9531   18.6914 C   0  0  0  0  0  0
  -43.0822   -0.7237   19.1429 O   0  0  0  0  0  0
  -43.8447   -0.0376   20.1076 C   0  0  0  0  0  0
  -47.3257   -3.6679   17.4599 O   0  0  0  0  0  0
  -46.4454   -1.1444   14.8158 C   0  0  0  0  0  0
  -46.0150   -1.4672   19.0732 O   0  0  0  0  0  0
  -44.5266    1.1912   19.8003 C   0  0  0  0  0  0
  -45.2821    1.8356   20.8165 C   0  0  0  0  0  0
  -45.3714    1.2852   22.1124 C   0  0  0  0  0  0
  -44.7093    0.0802   22.4224 C   0  0  0  0  0  0
  -43.9469   -0.5892   21.4351 C   0  0  0  0  0  0
  -43.2614   -1.8631   21.7960 C   0  0  0  0  0  0
  -44.4707    1.8263   18.4310 C   0  0  0  0  0  0
  -51.7439   -8.7787   21.4189 C   0  0  0  0  0  0
  -52.6534   -5.5029   21.7628 H   0  0  0  0  0  0
  -48.4332   -5.1426   17.4863 H   0  0  0  0  0  0
  -44.5105   -2.1409   16.3758 H   0  0  0  0  0  0
  -47.8427   -3.0827   18.0022 H   0  0  0  0  0  0
  1  5  1  0  0  0
  1 46  1  0  0  0
  2  3  1  0  0  0
  2 46  1  0  0  0
  3  4  1  0  0  0
  3 13  1  0  0  0
  4  5  1  0  0  0
  4 12  2  0  0  0
  5 47  1  0  0  0
  6  7  2  0  0  0
  6 11  1  0  0  0
  6 37  1  0  0  0
  7  8  1  0  0  0
  8  9  2  0  0  0
  9 10  1  0  0  0
 10 11  2  0  0  0
 13 14  1  0  0  0
 13 17  1  0  0  0
 14 15  1  0  0  0
 14 20  2  0  0  0
 15 16  1  0  0  0
 15 48  1  0  0  0
 16 27  1  0  0  0
 16 28  1  0  0  0
 17 18  1  0  0  0
 17 19  1  0  0  0
 21 22  2  0  0  0
 21 26  1  0  0  0
 22 23  1  0  0  0
 23 24  2  0  0  0
 24 25  1  0  0  0
 25 26  2  0  0  0
 25 27  1  0  0  0
 28 29  1  0  0  0
 29 30  1  0  0  0
 29 36  1  0  0  0
 30 31  1  0  0  0
 30 37  1  0  0  0
 31 32  1  0  0  0
 31 49  1  0  0  0
 32 33  1  0  0  0
 32 38  2  0  0  0
 33 34  1  0  0  0
 34 35  1  0  0  0
 35 39  2  0  0  0
 35 43  1  0  0  0
 36 50  1  0  0  0
 39 40  1  0  0  0
 39 45  1  0  0  0
 40 41  2  0  0  0
 41 42  1  0  0  0
 42 43  2  0  0  0
 43 44  1  0  0  0
M  END
>  <CHROM.0>
74.94124528,175.28908803,-62.15386331

>  <CHROM.1>
108.35248084,-179.01113568,145.85271987,81.75868703,36.81447624,57.16319115
41.54684347,-99.96503051,-174.05050206,170.18992668,-62.80735530,-92.73612257
81.44619498,111.47473704,51.22561498,-108.91923326,-48.42794919,-3.10102826
18.06601382,-2.56796525,-0.66669394,-0.88135821

>  <Name>
Lopinavir.pdb

>  <RI>
-3.98404e+08

>  <Rbt.Current_Directory>
/root/miniconda3/envs/rdock/share/rxdock-2013.1.1_148c5bd1-0/data/ligands/prepped_ligands/Lopinavir

>  <Rbt.Executable>
rbdock/0.1.0

>  <Rbt.Library>
librxdock.so/0.1.0

>  <Rbt.Parameter_File>
/root/miniconda3/envs/rdock/share/rxdock-2013.1.1_148c5bd1-0/data/scripts/dock.prm

>  <Rbt.Receptor>
def.prm

>  <SCORE>
-3.06103

>  <SCORE.INTER>
-8.06355

>  <SCORE.INTER.CONST>
1

>  <SCORE.INTER.POLAR>
-0.295754

>  <SCORE.INTER.REPUL>
0.0558219

>  <SCORE.INTER.ROT>
15

>  <SCORE.INTER.VDW>
-27.7371

>  <SCORE.INTER.norm>
-0.175295

>  <SCORE.INTRA>
5.59381

>  <SCORE.INTRA.DIHEDRAL>
0.973196

>  <SCORE.INTRA.DIHEDRAL.0>
17.6555

>  <SCORE.INTRA.POLAR>
-0.224286

>  <SCORE.INTRA.POLAR.0>
-0.227187

>  <SCORE.INTRA.REPUL>
0

>  <SCORE.INTRA.REPUL.0>
0

>  <SCORE.INTRA.VDW>
5.86979

>  <SCORE.INTRA.VDW.0>
-8.98636

>  <SCORE.INTRA.norm>
0.121605

>  <SCORE.RESTR>
0.0665883

>  <SCORE.RESTR.CAVITY>
0.0665883

>  <SCORE.RESTR.norm>
0.00144757

>  <SCORE.SYSTEM>
-0.65788

>  <SCORE.SYSTEM.CONST>
0

>  <SCORE.SYSTEM.DIHEDRAL>
0.635671

>  <SCORE.SYSTEM.VDW>
-0.975716

>  <SCORE.SYSTEM.norm>
-0.0143017

>  <SCORE.heavy>
46

>  <SCORE.norm>
-0.0665442

$$$$
Lopinavir.pdb
  RxDock  02242109563D
librxdock.so/0.1.0
 50 53  0  0  0  0  0  0  0  0999 V2000
  -47.8083   -8.7702   18.3863 C   0  0  0  0  0  0
  -50.2528   -8.6983   18.9478 C   0  0  0  0  0  0
  -50.1290   -7.2025   19.1091 N   0  0  0  0  0  0
  -48.9160   -6.5549   18.9189 C   0  0  0  0  0  0
  -47.8311   -7.3065   18.5768 N   0  0  0  0  0  0
  -49.7967   -0.5169   13.9004 C   0  0  0  0  0  0
  -50.5444    0.5155   13.2836 C   0  0  0  0  0  0
  -49.9509    1.3684   12.3205 C   0  0  0  0  0  0
  -48.5997    1.1974   11.9649 C   0  0  0  0  0  0
  -47.8439    0.1717   12.5739 C   0  0  0  0  0  0
  -48.4364   -0.6802   13.5349 C   0  0  0  0  0  0
  -48.7985   -5.3486   19.0492 O   0  0  0  0  0  0
  -51.3353   -6.3883   19.4905 C   0  0  0  0  0  0
  -51.3677   -5.0918   18.6358 C   0  0  0  0  0  0
  -51.3063   -5.3433   17.2912 N   0  0  0  0  0  0
  -51.3213   -4.3051   16.2370 C   0  0  0  0  0  0
  -51.3760   -6.0846   21.0403 C   0  0  0  0  0  0
  -50.2615   -5.1291   21.5082 C   0  0  0  0  0  0
  -52.7404   -5.4812   21.4471 C   0  0  0  0  0  0
  -51.4398   -3.9756   19.1529 O   0  0  0  0  0  0
  -55.9111   -5.5505   15.3720 C   0  0  0  0  0  0
  -55.8779   -6.8804   15.8553 C   0  0  0  0  0  0
  -54.6339   -7.5186   16.0689 C   0  0  0  0  0  0
  -53.4322   -6.8250   15.7992 C   0  0  0  0  0  0
  -53.4568   -5.4895   15.3128 C   0  0  0  0  0  0
  -54.7053   -4.8599   15.1025 C   0  0  0  0  0  0
  -52.1727   -4.7628   15.0301 C   0  0  0  0  0  0
  -51.9587   -2.9930   16.7440 C   0  0  0  0  0  0
  -51.0701   -1.8973   17.3607 C   0  0  0  0  0  0
  -50.4243   -0.8806   16.3849 C   0  0  0  0  0  0
  -49.0132   -0.6813   16.7900 N   0  0  0  0  0  0
  -48.6209   -0.3100   18.0501 C   0  0  0  0  0  0
  -47.0985   -0.1405   18.2217 C   0  0  0  0  0  0
  -46.5173   -1.2307   18.9605 O   0  0  0  0  0  0
  -45.1093   -1.2440   18.9482 C   0  0  0  0  0  0
  -51.9050   -1.1683   18.2281 O   0  0  0  0  0  0
  -50.4564   -1.4203   14.9243 C   0  0  0  0  0  0
  -49.3860   -0.1023   18.9981 O   0  0  0  0  0  0
  -44.3375   -0.7627   20.0626 C   0  0  0  0  0  0
  -42.9192   -0.8041   19.9907 C   0  0  0  0  0  0
  -42.2659   -1.3109   18.8477 C   0  0  0  0  0  0
  -43.0133   -1.7876   17.7520 C   0  0  0  0  0  0
  -44.4282   -1.7612   17.7881 C   0  0  0  0  0  0
  -45.1881   -2.2755   16.6130 C   0  0  0  0  0  0
  -44.9803   -0.2123   21.3137 C   0  0  0  0  0  0
  -49.1912   -9.3182   18.0150 C   0  0  0  0  0  0
  -46.9898   -6.7423   18.4561 H   0  0  0  0  0  0
  -51.2475   -6.3366   17.0673 H   0  0  0  0  0  0
  -48.2386   -0.8125   16.1393 H   0  0  0  0  0  0
  -52.5732   -0.7765   17.6770 H   0  0  0  0  0  0
  1  5  1  0  0  0
  1 46  1  0  0  0
  2  3  1  0  0  0
  2 46  1  0  0  0
  3  4  1  0  0  0
  3 13  1  0  0  0
  4  5  1  0  0  0
  4 12  2  0  0  0
  5 47  1  0  0  0
  6  7  2  0  0  0
  6 11  1  0  0  0
  6 37  1  0  0  0
  7  8  1  0  0  0
  8  9  2  0  0  0
  9 10  1  0  0  0
 10 11  2  0  0  0
 13 14  1  0  0  0
 13 17  1  0  0  0
 14 15  1  0  0  0
 14 20  2  0  0  0
 15 16  1  0  0  0
 15 48  1  0  0  0
 16 27  1  0  0  0
 16 28  1  0  0  0
 17 18  1  0  0  0
 17 19  1  0  0  0
 21 22  2  0  0  0
 21 26  1  0  0  0
 22 23  1  0  0  0
 23 24  2  0  0  0
 24 25  1  0  0  0
 25 26  2  0  0  0
 25 27  1  0  0  0
 28 29  1  0  0  0
 29 30  1  0  0  0
 29 36  1  0  0  0
 30 31  1  0  0  0
 30 37  1  0  0  0
 31 32  1  0  0  0
 31 49  1  0  0  0
 32 33  1  0  0  0
 32 38  2  0  0  0
 33 34  1  0  0  0
 34 35  1  0  0  0
 35 39  2  0  0  0
 35 43  1  0  0  0
 36 50  1  0  0  0
 39 40  1  0  0  0
 39 45  1  0  0  0
 40 41  2  0  0  0
 41 42  1  0  0  0
 42 43  2  0  0  0
 43 44  1  0  0  0
M  END
>  <CHROM.0>
41.70986603,-178.71351230,-80.32231320

>  <CHROM.1>
-137.39979395,-86.96975398,54.06243570,68.18819006,-140.67651563,40.37309430
91.81971055,-72.17063370,86.44106843,-136.40854489,-63.06332460,-54.47582679
-177.73075437,-105.64017622,169.66926031,100.89419292,-49.53250039,-3.40277064
17.41616809,-2.66005477,-0.49967467,-0.68793424

>  <Name>
Lopinavir.pdb

>  <RI>
-3.98404e+08

>  <Rbt.Current_Directory>
/root/miniconda3/envs/rdock/share/rxdock-2013.1.1_148c5bd1-0/data/ligands/prepped_ligands/Lopinavir

>  <Rbt.Executable>
rbdock/0.1.0

>  <Rbt.Library>
librxdock.so/0.1.0

>  <Rbt.Parameter_File>
/root/miniconda3/envs/rdock/share/rxdock-2013.1.1_148c5bd1-0/data/scripts/dock.prm

>  <Rbt.Receptor>
def.prm

>  <SCORE>
-4.16155

>  <SCORE.INTER>
-17.5129

>  <SCORE.INTER.CONST>
1

>  <SCORE.INTER.POLAR>
-0.694334

>  <SCORE.INTER.REPUL>
0

>  <SCORE.INTER.ROT>
15

>  <SCORE.INTER.VDW>
-35.5521

>  <SCORE.INTER.norm>
-0.380714

>  <SCORE.INTRA>
13.4066

>  <SCORE.INTRA.DIHEDRAL>
7.64552

>  <SCORE.INTRA.DIHEDRAL.0>
17.6555

>  <SCORE.INTRA.POLAR>
0.227187

>  <SCORE.INTRA.POLAR.0>
-0.227187

>  <SCORE.INTRA.REPUL>
0

>  <SCORE.INTRA.REPUL.0>
0

>  <SCORE.INTRA.VDW>
8.81142

>  <SCORE.INTRA.VDW.0>
-8.98636

>  <SCORE.INTRA.norm>
0.291448

>  <SCORE.RESTR>
0

>  <SCORE.RESTR.CAVITY>
0

>  <SCORE.RESTR.norm>
0

>  <SCORE.SYSTEM>
-0.0553003

>  <SCORE.SYSTEM.CONST>
0

>  <SCORE.SYSTEM.DIHEDRAL>
1.7241

>  <SCORE.SYSTEM.VDW>
-0.91735

>  <SCORE.SYSTEM.norm>
-0.00120218

>  <SCORE.heavy>
46

>  <SCORE.norm>
-0.0904684

$$$$
