Site3m_Forsythoside_D
  xed2sdf_05210316543D
 
 62 64  0  0  1  0  0  0  0  0999 V2000
  -47.2256   -6.6529   18.3011 O   0  0  0  0  0  0  0  0  0  0  0  0
  -46.8467   -3.8794   17.3892 O   0  0  0  0  0  0  0  0  0  0  0  0
  -46.9628   -2.5318   15.4450 O   0  0  0  0  0  0  0  0  0  0  0  0
  -50.2986   -6.2215   16.2509 O   0  0  0  0  0  0  0  0  0  0  0  0
  -46.2556   -8.6579   19.2772 O   0  0  0  0  0  0  0  0  0  0  0  0
  -50.8760   -8.7116   17.6621 O   0  0  0  0  0  0  0  0  0  0  0  0
  -48.5218  -10.1291   18.5427 O   0  0  0  0  0  0  0  0  0  0  0  0
  -45.3191   -1.7029   18.6487 O   0  0  0  0  0  0  0  0  0  0  0  0
  -46.4591    0.4438   17.3064 O   0  0  0  0  0  0  0  0  0  0  0  0
  -44.6951   -0.9989   14.3916 O   0  0  0  0  0  0  0  0  0  0  0  0
  -40.7792  -13.3332   18.5644 O   0  0  0  0  0  0  0  0  0  0  0  0
  -39.1947  -11.4648   19.8199 O   0  0  0  0  0  0  0  0  0  0  0  0
  -48.1213   -6.0913   17.3117 C   0  0  0  0  0  0  0  0  0  0  0  0
  -49.5533   -6.6649   17.3942 C   0  0  0  0  0  0  0  0  0  0  0  0
  -49.5505   -8.2061   17.4452 C   0  0  0  0  0  0  0  0  0  0  0  0
  -48.5963   -8.6954   18.5497 C   0  0  0  0  0  0  0  0  0  0  0  0
  -45.4708   -1.7744   17.2231 C   0  0  0  0  0  0  0  0  0  0  0  0
  -46.7803   -2.5249   16.8793 C   0  0  0  0  0  0  0  0  0  0  0  0
  -45.4866   -0.3570   16.6180 C   0  0  0  0  0  0  0  0  0  0  0  0
  -45.7919   -0.4074   15.1069 C   0  0  0  0  0  0  0  0  0  0  0  0
  -47.1914   -8.0996   18.3341 C   0  0  0  0  0  0  0  0  0  0  0  0
  -48.1243   -4.5440   17.2403 C   0  0  0  0  0  0  0  0  0  0  0  0
  -47.0941   -1.2059   14.8900 C   0  0  0  0  0  0  0  0  0  0  0  0
  -48.2659   -0.4730   15.5624 C   0  0  0  0  0  0  0  0  0  0  0  0
  -45.1853   -9.3917   18.6460 C   0  0  0  0  0  0  0  0  0  0  0  0
  -44.7699  -10.6622   19.4192 C   0  0  0  0  0  0  0  0  0  0  0  0
  -43.2702  -10.8740   19.5481 C   0  0  0  0  0  0  0  0  0  0  0  0
  -42.6996  -12.0096   19.0139 C   0  0  0  0  0  0  0  0  0  0  0  0
  -42.4701   -9.9394   20.1686 C   0  0  0  0  0  0  0  0  0  0  0  0
  -41.3396  -12.2122   19.0999 C   0  0  0  0  0  0  0  0  0  0  0  0
  -41.1102  -10.1366   20.2631 C   0  0  0  0  0  0  0  0  0  0  0  0
  -40.5407  -11.2710   19.7298 C   0  0  0  0  0  0  0  0  0  0  0  0
  -47.7308   -6.3932   16.4420 H   0  0  0  0  0  0  0  0  0  0  0  0
  -49.9762   -6.3351   18.2381 H   0  0  0  0  0  0  0  0  0  0  0  0
  -49.2284   -8.5529   16.5644 H   0  0  0  0  0  0  0  0  0  0  0  0
  -48.9492   -8.3935   19.4353 H   0  0  0  0  0  0  0  0  0  0  0  0
  -44.6973   -2.2741   16.8331 H   0  0  0  0  0  0  0  0  0  0  0  0
  -47.5176   -2.0274   17.3363 H   0  0  0  0  0  0  0  0  0  0  0  0
  -44.5826    0.0551   16.7305 H   0  0  0  0  0  0  0  0  0  0  0  0
  -45.9129    0.5204   14.7536 H   0  0  0  0  0  0  0  0  0  0  0  0
  -46.8564   -8.3640   17.4298 H   0  0  0  0  0  0  0  0  0  0  0  0
  -47.2699   -1.2830   13.9086 H   0  0  0  0  0  0  0  0  0  0  0  0
  -50.7573   -6.9907   15.7928 H   0  0  0  0  0  0  0  0  0  0  0  0
  -51.4326   -8.6495   16.8265 H   0  0  0  0  0  0  0  0  0  0  0  0
  -47.7750  -10.4539   17.9518 H   0  0  0  0  0  0  0  0  0  0  0  0
  -44.7576   -0.9137   18.9194 H   0  0  0  0  0  0  0  0  0  0  0  0
  -46.2692    1.4258   17.2013 H   0  0  0  0  0  0  0  0  0  0  0  0
  -44.9579   -1.2430   13.4519 H   0  0  0  0  0  0  0  0  0  0  0  0
  -39.8060  -13.4103   18.8075 H   0  0  0  0  0  0  0  0  0  0  0  0
  -38.6955  -10.8887   19.1631 H   0  0  0  0  0  0  0  0  0  0  0  0
  -48.5014   -4.2807   16.3522 H   0  0  0  0  0  0  0  0  0  0  0  0
  -48.6648   -4.2489   18.0280 H   0  0  0  0  0  0  0  0  0  0  0  0
  -47.9236    0.3622   15.9928 H   0  0  0  0  0  0  0  0  0  0  0  0
  -48.9560   -0.2402   14.8772 H   0  0  0  0  0  0  0  0  0  0  0  0
  -48.6801   -1.0641   16.2540 H   0  0  0  0  0  0  0  0  0  0  0  0
  -44.3900   -8.7906   18.5691 H   0  0  0  0  0  0  0  0  0  0  0  0
  -45.5205   -9.6894   17.7522 H   0  0  0  0  0  0  0  0  0  0  0  0
  -45.1582  -11.4543   18.9485 H   0  0  0  0  0  0  0  0  0  0  0  0
  -45.1157  -10.5478   20.3504 H   0  0  0  0  0  0  0  0  0  0  0  0
  -43.2761  -12.6901   18.5613 H   0  0  0  0  0  0  0  0  0  0  0  0
  -42.8798   -9.1120   20.5531 H   0  0  0  0  0  0  0  0  0  0  0  0
  -40.5365   -9.4560   20.7188 H   0  0  0  0  0  0  0  0  0  0  0  0
  1 13  1  0
  1 21  1  0
  2 22  1  0
  3 18  1  0
  3 23  1  0
  5 25  1  0
 11 30  1  0
 12 32  1  0
 13 14  1  0
 13 22  1  0
 14  4  1  0
 14 15  1  0
 15  6  1  0
 15 16  1  0
 16  7  1  0
 16 21  1  0
 17  8  1  0
 17 18  1  0
 17 19  1  0
 18  2  1  0
 19  9  1  0
 19 20  1  0
 20 10  1  0
 20 23  1  0
 21  5  1  0
 23 24  1  0
 25 26  1  0
 26 27  1  0
 27 28  2  0
 27 29  1  0
 28 30  1  0
 29 31  2  0
 30 32  2  0
 31 32  1  0
  4 43  1  0
  6 44  1  0
  7 45  1  0
  8 46  1  0
  9 47  1  0
 10 48  1  0
 11 49  1  0
 12 50  1  0
 13 33  1  0
 14 34  1  0
 15 35  1  0
 16 36  1  0
 17 37  1  0
 18 38  1  0
 19 39  1  0
 20 40  1  0
 21 41  1  0
 22 51  1  0
 22 52  1  0
 23 42  1  0
 24 53  1  0
 24 54  1  0
 24 55  1  0
 25 56  1  0
 25 57  1  0
 26 58  1  0
 26 59  1  0
 28 60  1  0
 29 61  1  0
 31 62  1  0
M  END
>  <LF dG>
-5.542

>  <LF VSscore>
-10.557

>  <LF Rank Score>
-8.361

>  <LF LE>
-0.173

>  <LF Structure Name>
C:\Users\Odara\AppData\Local\Temp\LeadFinder_11388_1\Ligand_1.sdf

>  <LF SDF id>
0

>  <LF Pose rank>
0

>  <LF version>
2001 1, 19 January 2019

>  <PUBCHEM_COMPOUND_CID>
69634125

>  <PUBCHEM_COMPOUND_CANONICALIZED>
1

>  <PUBCHEM_CACTVS_COMPLEXITY>
581

>  <PUBCHEM_CACTVS_HBOND_ACCEPTOR>
12

>  <PUBCHEM_CACTVS_HBOND_DONOR>
8

>  <PUBCHEM_CACTVS_ROTATABLE_BOND>
7

>  <PUBCHEM_CACTVS_SUBSKEYS>
AAADceB4PAAAAAAAAAAAAAAAAAAAAAAAAAA0SIAAAAAAAAABAAAAGgAACAAADBSwmAMyDoAABgCAAiBCAAACAAAgIAAIiAAGiIgZNiKCERKicAElwBEPmAfA4LwOIAABAAAAQABAAAIAAACAAAAAAAAAAA==

>  <PUBCHEM_IUPAC_OPENEYE_NAME>
(2R,3R,4R,5R,6S)-2-[[(2R,3S,4S,5R,6R)-6-[2-(3,4-dihydroxyphenyl)ethoxy]-3,4,5-trihydroxy-tetrahydropyran-2-yl]methoxy]-6-methyl-tetrahydropyran-3,4,5-triol

>  <PUBCHEM_IUPAC_CAS_NAME>
(2R,3R,4R,5R,6S)-2-[[(2R,3S,4S,5R,6R)-6-[2-(3,4-dihydroxyphenyl)ethoxy]-3,4,5-trihydroxy-2-oxanyl]methoxy]-6-methyloxane-3,4,5-triol

>  <PUBCHEM_IUPAC_NAME_MARKUP>
(2<I>R</I>,3<I>R</I>,4<I>R</I>,5<I>R</I>,6<I>S</I>)-2-[[(2<I>R</I>,3<I>S</I>,4<I>S</I>,5<I>R</I>,6<I>R</I>)-6-[2-(3,4-dihydroxyphenyl)ethoxy]-3,4,5-trihydroxyoxan-2-yl]methoxy]-6-methyloxane-3,4,5-tri

>  <PUBCHEM_IUPAC_NAME>
(2R,3R,4R,5R,6S)-2-[[(2R,3S,4S,5R,6R)-6-[2-(3,4-dihydroxyphenyl)ethoxy]-3,4,5-trihydroxyoxan-2-yl]methoxy]-6-methyloxane-3,4,5-triol

>  <PUBCHEM_IUPAC_SYSTEMATIC_NAME>
(2R,3R,4R,5R,6S)-2-[[(2R,3S,4S,5R,6R)-6-[2-[3,4-bis(oxidanyl)phenyl]ethoxy]-3,4,5-tris(oxidanyl)oxan-2-yl]methoxy]-6-methyl-oxane-3,4,5-triol

>  <PUBCHEM_IUPAC_TRADITIONAL_NAME>
(2R,3R,4R,5R,6S)-2-[[(2R,3S,4S,5R,6R)-6-[2-(3,4-dihydroxyphenyl)ethoxy]-3,4,5-trihydroxy-tetrahydropyran-2-yl]methoxy]-6-methyl-tetrahydropyran-3,4,5-triol

>  <PUBCHEM_IUPAC_INCHI>
InChI=1S/C20H30O12/c1-8-13(23)15(25)17(27)20(31-8)30-7-12-14(24)16(26)18(28)19(32-12)29-5-4-9-2-3-10(21)11(22)6-9/h2-3,6,8,12-28H,4-5,7H2,1H3/t8-,12+,13-,14+,15+,16-,17+,18+,19+,20+/m0/s1

>  <PUBCHEM_IUPAC_INCHIKEY>
QIMGUQIHCNDUKU-OJJLXHDHSA-N

>  <PUBCHEM_XLOGP3_AA>
-2.5

>  <PUBCHEM_EXACT_MASS>
462.173726

>  <PUBCHEM_MOLECULAR_FORMULA>
C20H30O12

>  <PUBCHEM_MOLECULAR_WEIGHT>
462.4

>  <PUBCHEM_OPENEYE_CAN_SMILES>
CC1C(C(C(C(O1)OCC2C(C(C(C(O2)OCCC3=CC(=C(C=C3)O)O)O)O)O)O)O)O

>  <PUBCHEM_OPENEYE_ISO_SMILES>
C[C@H]1[C@@H]([C@H]([C@H]([C@@H](O1)OC[C@@H]2[C@H]([C@@H]([C@H]([C@@H](O2)OCCC3=CC(=C(C=C3)O)O)O)O)O)O)O)O

>  <PUBCHEM_CACTVS_TPSA>
199

>  <PUBCHEM_MONOISOTOPIC_WEIGHT>
462.173726

>  <PUBCHEM_TOTAL_CHARGE>
0

>  <PUBCHEM_HEAVY_ATOM_COUNT>
32

>  <PUBCHEM_ATOM_DEF_STEREO_COUNT>
10

>  <PUBCHEM_ATOM_UDEF_STEREO_COUNT>
0

>  <PUBCHEM_BOND_DEF_STEREO_COUNT>
0

>  <PUBCHEM_BOND_UDEF_STEREO_COUNT>
0

>  <PUBCHEM_ISOTOPIC_ATOM_COUNT>
0

>  <PUBCHEM_COMPONENT_COUNT>
1

>  <PUBCHEM_CACTVS_TAUTO_COUNT>
-1

>  <PUBCHEM_COORDINATE_TYPE>
1
5
255

>  <PUBCHEM_BONDANNOTATIONS>
20  10  5
13  22  5
18  2  5
23  24  6
27  28  8
27  29  8
28  30  8
29  31  8
30  32  8
31  32  8
14  4  6
21  5  5
15  6  5
16  7  6
17  8  6
19  9  6

>  <Favorite_cresset>
false

>  <MW_cresset>
462.4

>  <#Atoms_cresset>
32

>  <SlogP_cresset>
-0.4

>  <TPSA_cresset>
198.8

>  <Flexibility_cresset>
15.9

>  <#RB_cresset>
15

>  <Rof5_cresset>
2

>  <Filename_cresset>
drag.13_483.sdf

>  <Confs_cresset>
0

>  <Poses_cresset>
0

$$$$
W_Site3m_Lopinavir_D
  xed2sdf_05210316543D
 
 94 97  0  0  1  0  0  0  0  0999 V2000
  -44.1609   -1.9947   18.1510 O   0  0  0  0  0  0  0  0  0  0  0  0
  -47.3160   -1.5102   19.0535 O   0  0  0  0  0  0  0  0  0  0  0  0
  -47.3622    2.6803   18.6802 O   0  0  0  0  0  0  0  0  0  0  0  0
  -45.3272    0.7082   21.2355 O   0  0  0  0  0  0  0  0  0  0  0  0
  -45.0055   -1.3086   23.4582 O   0  0  0  0  0  0  0  0  0  0  0  0
  -48.3400    1.2917   20.1695 N   0  0  0  0  0  0  0  0  0  0  0  0
  -47.0741    0.1509   17.5195 N   0  0  0  0  0  0  0  0  0  0  0  0
  -43.9591   -0.9413   20.4558 N   0  0  0  0  0  0  0  0  0  0  0  0
  -47.2975    3.2854   20.8314 N   0  0  0  0  0  0  0  0  0  0  0  0
  -45.9262   -0.4888   16.8640 C   0  0  0  0  0  0  0  0  0  0  0  0
  -48.8135    0.3928   19.0990 C   0  0  0  0  0  0  0  0  0  0  0  0
  -44.6621    0.2605   17.3374 C   0  0  0  0  0  0  0  0  0  0  0  0
  -43.6437   -0.6588   18.0410 C   0  0  0  0  0  0  0  0  0  0  0  0
  -49.5784    1.1258   17.9717 C   0  0  0  0  0  0  0  0  0  0  0  0
  -43.3369   -0.0822   19.4387 C   0  0  0  0  0  0  0  0  0  0  0  0
  -46.1689   -0.3926   15.3431 C   0  0  0  0  0  0  0  0  0  0  0  0
  -47.6591   -0.4378   18.5742 C   0  0  0  0  0  0  0  0  0  0  0  0
  -48.6213    0.9159   21.5658 C   0  0  0  0  0  0  0  0  0  0  0  0
  -48.8754    2.1792   22.3926 C   0  0  0  0  0  0  0  0  0  0  0  0
  -41.8218    0.0197   19.7079 C   0  0  0  0  0  0  0  0  0  0  0  0
  -47.6559    2.4212   19.8521 C   0  0  0  0  0  0  0  0  0  0  0  0
  -50.6848    2.0227   18.5525 C   0  0  0  0  0  0  0  0  0  0  0  0
  -50.2500    0.1152   17.0257 C   0  0  0  0  0  0  0  0  0  0  0  0
  -47.6236    3.0502   22.2475 C   0  0  0  0  0  0  0  0  0  0  0  0
  -47.4077   -1.0989   14.8161 C   0  0  0  0  0  0  0  0  0  0  0  0
  -41.2976    1.4409   19.8502 C   0  0  0  0  0  0  0  0  0  0  0  0
  -44.9335   -0.4498   21.2364 C   0  0  0  0  0  0  0  0  0  0  0  0
  -47.7028   -2.3838   15.2167 C   0  0  0  0  0  0  0  0  0  0  0  0
  -48.2474   -0.4514   13.9371 C   0  0  0  0  0  0  0  0  0  0  0  0
  -40.3222    1.7325   20.7782 C   0  0  0  0  0  0  0  0  0  0  0  0
  -41.7946    2.4453   19.0485 C   0  0  0  0  0  0  0  0  0  0  0  0
  -45.5335   -1.5060   22.1311 C   0  0  0  0  0  0  0  0  0  0  0  0
  -48.8284   -3.0169   14.7407 C   0  0  0  0  0  0  0  0  0  0  0  0
  -49.3734   -1.0830   13.4603 C   0  0  0  0  0  0  0  0  0  0  0  0
  -49.6640   -2.3664   13.8622 C   0  0  0  0  0  0  0  0  0  0  0  0
  -39.8467    3.0179   20.9032 C   0  0  0  0  0  0  0  0  0  0  0  0
  -41.3199    3.7309   19.1718 C   0  0  0  0  0  0  0  0  0  0  0  0
  -40.3453    4.0176   20.0999 C   0  0  0  0  0  0  0  0  0  0  0  0
  -44.0629   -2.1589   23.8873 C   0  0  0  0  0  0  0  0  0  0  0  0
  -42.7333   -1.7544   23.8978 C   0  0  0  0  0  0  0  0  0  0  0  0
  -44.3785   -3.4509   24.2968 C   0  0  0  0  0  0  0  0  0  0  0  0
  -41.7509   -2.6154   24.3265 C   0  0  0  0  0  0  0  0  0  0  0  0
  -43.3821   -4.2980   24.7228 C   0  0  0  0  0  0  0  0  0  0  0  0
  -42.2815   -0.3694   23.4594 C   0  0  0  0  0  0  0  0  0  0  0  0
  -45.7816   -4.0381   24.3108 C   0  0  0  0  0  0  0  0  0  0  0  0
  -42.0709   -3.8860   24.7407 C   0  0  0  0  0  0  0  0  0  0  0  0
  -45.8080   -1.4551   17.0926 H   0  0  0  0  0  0  0  0  0  0  0  0
  -49.4909   -0.2231   19.5019 H   0  0  0  0  0  0  0  0  0  0  0  0
  -42.8022   -0.7003   17.5020 H   0  0  0  0  0  0  0  0  0  0  0  0
  -43.7109    0.8444   19.4795 H   0  0  0  0  0  0  0  0  0  0  0  0
  -43.8097   -2.5885   17.4191 H   0  0  0  0  0  0  0  0  0  0  0  0
  -47.3870    0.9140   17.2081 H   0  0  0  0  0  0  0  0  0  0  0  0
  -43.7068   -1.7814   20.5315 H   0  0  0  0  0  0  0  0  0  0  0  0
  -46.8424    4.0070   20.6129 H   0  0  0  0  0  0  0  0  0  0  0  0
  -44.9368    0.9813   17.9737 H   0  0  0  0  0  0  0  0  0  0  0  0
  -44.2143    0.6335   16.5249 H   0  0  0  0  0  0  0  0  0  0  0  0
  -48.9097    1.6791   17.4748 H   0  0  0  0  0  0  0  0  0  0  0  0
  -45.3726   -0.7820   14.8804 H   0  0  0  0  0  0  0  0  0  0  0  0
  -46.3161    0.5787   15.1562 H   0  0  0  0  0  0  0  0  0  0  0  0
  -47.8398    0.4190   21.9430 H   0  0  0  0  0  0  0  0  0  0  0  0
  -49.4313    0.3302   21.5965 H   0  0  0  0  0  0  0  0  0  0  0  0
  -49.0253    1.9418   23.3523 H   0  0  0  0  0  0  0  0  0  0  0  0
  -49.6911    2.6627   22.0745 H   0  0  0  0  0  0  0  0  0  0  0  0
  -41.3386   -0.4189   18.9500 H   0  0  0  0  0  0  0  0  0  0  0  0
  -41.6592   -0.4299   20.5863 H   0  0  0  0  0  0  0  0  0  0  0  0
  -51.5666    1.7356   18.1786 H   0  0  0  0  0  0  0  0  0  0  0  0
  -50.6983    1.9400   19.5488 H   0  0  0  0  0  0  0  0  0  0  0  0
  -50.5083    2.9761   18.3074 H   0  0  0  0  0  0  0  0  0  0  0  0
  -51.2356    0.2836   17.0165 H   0  0  0  0  0  0  0  0  0  0  0  0
  -49.8816    0.2206   16.1021 H   0  0  0  0  0  0  0  0  0  0  0  0
  -50.0690   -0.8152   17.3441 H   0  0  0  0  0  0  0  0  0  0  0  0
  -47.7813    3.9294   22.6973 H   0  0  0  0  0  0  0  0  0  0  0  0
  -46.8557    2.5711   22.6728 H   0  0  0  0  0  0  0  0  0  0  0  0
  -47.0971   -2.8578   15.8556 H   0  0  0  0  0  0  0  0  0  0  0  0
  -48.0382    0.4816   13.6442 H   0  0  0  0  0  0  0  0  0  0  0  0
  -39.9586    1.0077   21.3634 H   0  0  0  0  0  0  0  0  0  0  0  0
  -42.5032    2.2389   18.3736 H   0  0  0  0  0  0  0  0  0  0  0  0
  -46.5296   -1.4204   22.1428 H   0  0  0  0  0  0  0  0  0  0  0  0
  -45.3033   -2.4194   21.7953 H   0  0  0  0  0  0  0  0  0  0  0  0
  -49.0385   -3.9498   15.0334 H   0  0  0  0  0  0  0  0  0  0  0  0
  -49.9803   -0.6092   12.8221 H   0  0  0  0  0  0  0  0  0  0  0  0
  -50.4819   -2.8262   13.5160 H   0  0  0  0  0  0  0  0  0  0  0  0
  -39.1385    3.2256   21.5780 H   0  0  0  0  0  0  0  0  0  0  0  0
  -41.6832    4.4567   18.5874 H   0  0  0  0  0  0  0  0  0  0  0  0
  -39.9995    4.9514   20.1902 H   0  0  0  0  0  0  0  0  0  0  0  0
  -40.7970   -2.3149   24.3370 H   0  0  0  0  0  0  0  0  0  0  0  0
  -43.6143   -5.2233   25.0223 H   0  0  0  0  0  0  0  0  0  0  0  0
  -41.2885   -0.3040   23.5590 H   0  0  0  0  0  0  0  0  0  0  0  0
  -42.5348   -0.2181   22.5038 H   0  0  0  0  0  0  0  0  0  0  0  0
  -42.7243    0.3246   24.0274 H   0  0  0  0  0  0  0  0  0  0  0  0
  -45.7368   -4.9805   24.6416 H   0  0  0  0  0  0  0  0  0  0  0  0
  -46.3685   -3.4971   24.9133 H   0  0  0  0  0  0  0  0  0  0  0  0
  -46.1623   -4.0225   23.3863 H   0  0  0  0  0  0  0  0  0  0  0  0
  -41.3533   -4.5078   25.0540 H   0  0  0  0  0  0  0  0  0  0  0  0
  2 17  2  0
  3 21  2  0
  4 27  2  0
  5 32  1  0
  5 39  1  0
  6 11  1  0
  6 18  1  0
  6 21  1  0
  7 17  1  0
  8 27  1  0
  9 21  1  0
  9 24  1  0
 10  7  1  0
 10 12  1  0
 10 16  1  0
 11 14  1  0
 11 17  1  0
 12 13  1  0
 13  1  1  0
 13 15  1  0
 14 22  1  0
 14 23  1  0
 15  8  1  0
 15 20  1  0
 16 25  1  0
 18 19  1  0
 19 24  1  0
 20 26  1  0
 25 28  2  0
 25 29  1  0
 26 30  2  0
 26 31  1  0
 27 32  1  0
 28 33  1  0
 29 34  2  0
 30 36  1  0
 31 37  2  0
 33 35  2  0
 34 35  1  0
 36 38  2  0
 37 38  1  0
 39 40  2  0
 39 41  1  0
 40 42  1  0
 40 44  1  0
 41 43  2  0
 41 45  1  0
 42 46  2  0
 43 46  1  0
  1 51  1  0
  7 52  1  0
  8 53  1  0
  9 54  1  0
 10 47  1  0
 11 48  1  0
 12 55  1  0
 12 56  1  0
 13 49  1  0
 14 57  1  0
 15 50  1  0
 16 58  1  0
 16 59  1  0
 18 60  1  0
 18 61  1  0
 19 62  1  0
 19 63  1  0
 20 64  1  0
 20 65  1  0
 22 66  1  0
 22 67  1  0
 22 68  1  0
 23 69  1  0
 23 70  1  0
 23 71  1  0
 24 72  1  0
 24 73  1  0
 28 74  1  0
 29 75  1  0
 30 76  1  0
 31 77  1  0
 32 78  1  0
 32 79  1  0
 33 80  1  0
 34 81  1  0
 35 82  1  0
 36 83  1  0
 37 84  1  0
 38 85  1  0
 42 86  1  0
 43 87  1  0
 44 88  1  0
 44 89  1  0
 44 90  1  0
 45 91  1  0
 45 92  1  0
 45 93  1  0
 46 94  1  0
M  END
>  <LF dG>
-6.781

>  <LF VSscore>
-8.925

>  <LF Rank Score>
-7.51

>  <LF LE>
-0.147

>  <LF Structure Name>
C:\Users\Odara\AppData\Local\Temp\LeadFinder_7928_1\Ligand_1.sdf

>  <LF SDF id>
0

>  <LF Pose rank>
0

>  <LF version>
2001 1, 19 January 2019

>  <PUBCHEM_COMPOUND_CID>
92727

>  <PUBCHEM_COMPOUND_CANONICALIZED>
1

>  <PUBCHEM_CACTVS_COMPLEXITY>
940

>  <PUBCHEM_CACTVS_HBOND_ACCEPTOR>
5

>  <PUBCHEM_CACTVS_HBOND_DONOR>
4

>  <PUBCHEM_CACTVS_ROTATABLE_BOND>
15

>  <PUBCHEM_CACTVS_SUBSKEYS>
AAADcfB/uAAAAAAAAAAAAAAAAAAAAAAAAAA8YMEAAAAAAAABUAAAHgAQCAAADTzhmAYzBoPABgCIAiFSEAICCAAgIAAIiIHMCIiOdjKE8T+XeCCu1hOYqAeQwPAOAAACAAAIAAAAAAQAABAAAAAAAAAAAA==

>  <PUBCHEM_IUPAC_OPENEYE_NAME>
(2S)-N-[(1S,3S,4S)-1-benzyl-4-[[2-(2,6-dimethylphenoxy)acetyl]amino]-3-hydroxy-5-phenyl-pentyl]-3-methyl-2-(2-oxohexahydropyrimidin-1-yl)butanamide

>  <PUBCHEM_IUPAC_CAS_NAME>
(2S)-N-[(2S,4S,5S)-5-[[2-(2,6-dimethylphenoxy)-1-oxoethyl]amino]-4-hydroxy-1,6-diphenylhexan-2-yl]-3-methyl-2-(2-oxo-1,3-diazinan-1-yl)butanamide

>  <PUBCHEM_IUPAC_NAME_MARKUP>
(2<I>S</I>)-<I>N</I>-[(2<I>S</I>,4<I>S</I>,5<I>S</I>)-5-[[2-(2,6-dimethylphenoxy)acetyl]amino]-4-hydroxy-1,6-diphenylhexan-2-yl]-3-methyl-2-(2-oxo-1,3-diazinan-1-yl)butanamide

>  <PUBCHEM_IUPAC_NAME>
(2S)-N-[(2S,4S,5S)-5-[[2-(2,6-dimethylphenoxy)acetyl]amino]-4-hydroxy-1,6-diphenylhexan-2-yl]-3-methyl-2-(2-oxo-1,3-diazinan-1-yl)butanamide

>  <PUBCHEM_IUPAC_SYSTEMATIC_NAME>
(2S)-N-[(2S,4S,5S)-5-[2-(2,6-dimethylphenoxy)ethanoylamino]-4-oxidanyl-1,6-diphenyl-hexan-2-yl]-3-methyl-2-(2-oxidanylidene-1,3-diazinan-1-yl)butanamide

>  <PUBCHEM_IUPAC_TRADITIONAL_NAME>
(2S)-N-[(1S,3S,4S)-1-benzyl-4-[[2-(2,6-dimethylphenoxy)acetyl]amino]-3-hydroxy-5-phenyl-pentyl]-2-(2-ketohexahydropyrimidin-1-yl)-3-methyl-butyramide

>  <PUBCHEM_IUPAC_INCHI>
InChI=1S/C37H48N4O5/c1-25(2)34(41-20-12-19-38-37(41)45)36(44)39-30(21-28-15-7-5-8-16-28)23-32(42)31(22-29-17-9-6-10-18-29)40-33(43)24-46-35-26(3)13-11-14-27(35)4/h5-11,13-18,25,30-32,34,42H,12,19-24H2

>  <PUBCHEM_IUPAC_INCHIKEY>
KJHKTHWMRKYKJE-SUGCFTRWSA-N

>  <PUBCHEM_XLOGP3_AA>
5.9

>  <PUBCHEM_EXACT_MASS>
628.362471

>  <PUBCHEM_MOLECULAR_FORMULA>
C37H48N4O5

>  <PUBCHEM_MOLECULAR_WEIGHT>
628.8

>  <PUBCHEM_OPENEYE_CAN_SMILES>
CC1=C(C(=CC=C1)C)OCC(=O)NC(CC2=CC=CC=C2)C(CC(CC3=CC=CC=C3)NC(=O)C(C(C)C)N4CCCNC4=O)O

>  <PUBCHEM_OPENEYE_ISO_SMILES>
CC1=C(C(=CC=C1)C)OCC(=O)N[C@@H](CC2=CC=CC=C2)[C@H](C[C@H](CC3=CC=CC=C3)NC(=O)[C@H](C(C)C)N4CCCNC4=O)O

>  <PUBCHEM_CACTVS_TPSA>
120

>  <PUBCHEM_MONOISOTOPIC_WEIGHT>
628.362471

>  <PUBCHEM_TOTAL_CHARGE>
0

>  <PUBCHEM_HEAVY_ATOM_COUNT>
46

>  <PUBCHEM_ATOM_DEF_STEREO_COUNT>
4

>  <PUBCHEM_ATOM_UDEF_STEREO_COUNT>
0

>  <PUBCHEM_BOND_DEF_STEREO_COUNT>
0

>  <PUBCHEM_BOND_UDEF_STEREO_COUNT>
0

>  <PUBCHEM_ISOTOPIC_ATOM_COUNT>
0

>  <PUBCHEM_COMPONENT_COUNT>
1

>  <PUBCHEM_CACTVS_TAUTO_COUNT>
-1

>  <PUBCHEM_COORDINATE_TYPE>
1
5
255

>  <PUBCHEM_BONDANNOTATIONS>
13  1  6
11  17  5
25  28  8
25  29  8
26  30  8
26  31  8
28  33  8
29  34  8
30  36  8
31  37  8
33  35  8
34  35  8
36  38  8
37  38  8
39  40  8
39  41  8
40  42  8
41  43  8
42  46  8
43  46  8
10  7  6
15  8  5

>  <Favorite_cresset>
false

>  <MW_cresset>
628.8

>  <#Atoms_cresset>
46

>  <SlogP_cresset>
4.7

>  <TPSA_cresset>
120

>  <Flexibility_cresset>
16.1

>  <#RB_cresset>
16

>  <Rof5_cresset>
1

>  <Filename_cresset>
drag.27_146.sdf

>  <Confs_cresset>
0

>  <Poses_cresset>
0

$$$$
Site3m_Lopinavir_D
  xed2sdf_05210316543D
 
 94 97  0  0  1  0  0  0  0  0999 V2000
  -43.1034   -2.2488   18.9110 O   0  0  0  0  0  0  0  0  0  0  0  0
  -47.1179   -1.2892   19.1125 O   0  0  0  0  0  0  0  0  0  0  0  0
  -49.1847    3.3596   19.0693 O   0  0  0  0  0  0  0  0  0  0  0  0
  -45.6816   -1.4671   21.9696 O   0  0  0  0  0  0  0  0  0  0  0  0
  -42.7354   -2.9748   23.0207 O   0  0  0  0  0  0  0  0  0  0  0  0
  -49.0976    1.1797   18.4988 N   0  0  0  0  0  0  0  0  0  0  0  0
  -46.0297    0.2599   17.8523 N   0  0  0  0  0  0  0  0  0  0  0  0
  -43.5388   -1.0970   21.2890 N   0  0  0  0  0  0  0  0  0  0  0  0
  -50.9391    2.5345   17.9569 N   0  0  0  0  0  0  0  0  0  0  0  0
  -45.0737   -0.7216   17.3215 C   0  0  0  0  0  0  0  0  0  0  0  0
  -47.8287    1.0068   19.2389 C   0  0  0  0  0  0  0  0  0  0  0  0
  -43.6202   -0.2754   17.5787 C   0  0  0  0  0  0  0  0  0  0  0  0
  -43.0944   -0.8131   18.9260 C   0  0  0  0  0  0  0  0  0  0  0  0
  -47.9687    0.7982   20.7695 C   0  0  0  0  0  0  0  0  0  0  0  0
  -43.9458   -0.3149   20.1123 C   0  0  0  0  0  0  0  0  0  0  0  0
  -45.3440   -0.8536   15.8091 C   0  0  0  0  0  0  0  0  0  0  0  0
  -46.9676   -0.1360   18.7301 C   0  0  0  0  0  0  0  0  0  0  0  0
  -49.6753    0.0317   17.7760 C   0  0  0  0  0  0  0  0  0  0  0  0
  -50.6222    0.4814   16.6592 C   0  0  0  0  0  0  0  0  0  0  0  0
  -43.7919    1.2082   20.3492 C   0  0  0  0  0  0  0  0  0  0  0  0
  -49.7192    2.3867   18.5274 C   0  0  0  0  0  0  0  0  0  0  0  0
  -49.3992    0.4202   21.1932 C   0  0  0  0  0  0  0  0  0  0  0  0
  -47.5061    2.0249   21.5757 C   0  0  0  0  0  0  0  0  0  0  0  0
  -51.6437    1.4166   17.3111 C   0  0  0  0  0  0  0  0  0  0  0  0
  -46.6979   -1.4431   15.4418 C   0  0  0  0  0  0  0  0  0  0  0  0
  -42.4306    1.8128   20.0372 C   0  0  0  0  0  0  0  0  0  0  0  0
  -44.4733   -1.5543   22.1390 C   0  0  0  0  0  0  0  0  0  0  0  0
  -47.1181   -2.6269   16.0087 C   0  0  0  0  0  0  0  0  0  0  0  0
  -47.5139   -0.7965   14.5395 C   0  0  0  0  0  0  0  0  0  0  0  0
  -42.3129    2.7376   19.0234 C   0  0  0  0  0  0  0  0  0  0  0  0
  -41.3146    1.4525   20.7605 C   0  0  0  0  0  0  0  0  0  0  0  0
  -43.8860   -2.1814   23.3836 C   0  0  0  0  0  0  0  0  0  0  0  0
  -48.3421   -3.1603   15.6750 C   0  0  0  0  0  0  0  0  0  0  0  0
  -48.7381   -1.3285   14.2046 C   0  0  0  0  0  0  0  0  0  0  0  0
  -49.1525   -2.5112   14.7723 C   0  0  0  0  0  0  0  0  0  0  0  0
  -41.0904    3.2975   18.7324 C   0  0  0  0  0  0  0  0  0  0  0  0
  -40.0904    2.0099   20.4690 C   0  0  0  0  0  0  0  0  0  0  0  0
  -39.9779    2.9331   19.4552 C   0  0  0  0  0  0  0  0  0  0  0  0
  -41.9176   -3.4024   23.9978 C   0  0  0  0  0  0  0  0  0  0  0  0
  -41.8959   -4.7573   24.3023 C   0  0  0  0  0  0  0  0  0  0  0  0
  -41.0756   -2.5455   24.7045 C   0  0  0  0  0  0  0  0  0  0  0  0
  -41.0758   -5.2390   25.2953 C   0  0  0  0  0  0  0  0  0  0  0  0
  -40.2642   -3.0433   25.6984 C   0  0  0  0  0  0  0  0  0  0  0  0
  -42.7641   -5.7677   23.5685 C   0  0  0  0  0  0  0  0  0  0  0  0
  -40.9589   -1.0492   24.4572 C   0  0  0  0  0  0  0  0  0  0  0  0
  -40.2614   -4.3844   25.9980 C   0  0  0  0  0  0  0  0  0  0  0  0
  -45.1916   -1.6028   17.7793 H   0  0  0  0  0  0  0  0  0  0  0  0
  -47.3921    1.8895   19.0657 H   0  0  0  0  0  0  0  0  0  0  0  0
  -42.1616   -0.4727   19.0449 H   0  0  0  0  0  0  0  0  0  0  0  0
  -44.9177   -0.4490   19.9193 H   0  0  0  0  0  0  0  0  0  0  0  0
  -42.2802   -2.6158   18.4635 H   0  0  0  0  0  0  0  0  0  0  0  0
  -45.9784    1.0961   17.5844 H   0  0  0  0  0  0  0  0  0  0  0  0
  -42.6840   -1.2499   21.4295 H   0  0  0  0  0  0  0  0  0  0  0  0
  -51.3303    3.3224   17.9908 H   0  0  0  0  0  0  0  0  0  0  0  0
  -43.5820    0.7239   17.5874 H   0  0  0  0  0  0  0  0  0  0  0  0
  -43.0449   -0.6442   16.8487 H   0  0  0  0  0  0  0  0  0  0  0  0
  -47.3648    0.0293   20.9799 H   0  0  0  0  0  0  0  0  0  0  0  0
  -44.6331   -1.4369   15.4163 H   0  0  0  0  0  0  0  0  0  0  0  0
  -45.3402    0.0776   15.4443 H   0  0  0  0  0  0  0  0  0  0  0  0
  -50.1815   -0.5387   18.4229 H   0  0  0  0  0  0  0  0  0  0  0  0
  -48.9258   -0.4818   17.3582 H   0  0  0  0  0  0  0  0  0  0  0  0
  -51.0817   -0.3089   16.2539 H   0  0  0  0  0  0  0  0  0  0  0  0
  -50.1245    0.9442   15.9258 H   0  0  0  0  0  0  0  0  0  0  0  0
  -43.9927    1.3886   21.3119 H   0  0  0  0  0  0  0  0  0  0  0  0
  -44.4235    1.6398   19.7055 H   0  0  0  0  0  0  0  0  0  0  0  0
  -49.7088    1.0577   21.8990 H   0  0  0  0  0  0  0  0  0  0  0  0
  -50.0099    0.4704   20.4027 H   0  0  0  0  0  0  0  0  0  0  0  0
  -49.4081   -0.5126   21.5529 H   0  0  0  0  0  0  0  0  0  0  0  0
  -48.2398    2.3027   22.1959 H   0  0  0  0  0  0  0  0  0  0  0  0
  -46.6887    1.7937   22.1033 H   0  0  0  0  0  0  0  0  0  0  0  0
  -47.2888    2.7758   20.9518 H   0  0  0  0  0  0  0  0  0  0  0  0
  -52.2675    1.7712   16.6145 H   0  0  0  0  0  0  0  0  0  0  0  0
  -52.1678    0.9115   17.9965 H   0  0  0  0  0  0  0  0  0  0  0  0
  -46.5311   -3.1002   16.6654 H   0  0  0  0  0  0  0  0  0  0  0  0
  -47.2155    0.0637   14.1261 H   0  0  0  0  0  0  0  0  0  0  0  0
  -43.1202    3.0034   18.4964 H   0  0  0  0  0  0  0  0  0  0  0  0
  -41.3941    0.7834   21.4993 H   0  0  0  0  0  0  0  0  0  0  0  0
  -43.6106   -1.4646   24.0240 H   0  0  0  0  0  0  0  0  0  0  0  0
  -44.5714   -2.7653   23.8185 H   0  0  0  0  0  0  0  0  0  0  0  0
  -48.6422   -4.0199   16.0886 H   0  0  0  0  0  0  0  0  0  0  0  0
  -49.3265   -0.8554   13.5488 H   0  0  0  0  0  0  0  0  0  0  0  0
  -50.0417   -2.8987   14.5291 H   0  0  0  0  0  0  0  0  0  0  0  0
  -41.0104    3.9692   17.9958 H   0  0  0  0  0  0  0  0  0  0  0  0
  -39.2823    1.7440   20.9945 H   0  0  0  0  0  0  0  0  0  0  0  0
  -39.0887    3.3387   19.2438 H   0  0  0  0  0  0  0  0  0  0  0  0
  -41.0722   -6.2162   25.5072 H   0  0  0  0  0  0  0  0  0  0  0  0
  -39.6697   -2.4217   26.2082 H   0  0  0  0  0  0  0  0  0  0  0  0
  -42.5930   -6.6782   23.9450 H   0  0  0  0  0  0  0  0  0  0  0  0
  -43.7287   -5.5313   23.6841 H   0  0  0  0  0  0  0  0  0  0  0  0
  -42.5413   -5.7580   22.5938 H   0  0  0  0  0  0  0  0  0  0  0  0
  -40.2828   -0.6668   25.0869 H   0  0  0  0  0  0  0  0  0  0  0  0
  -40.6718   -0.8841   23.5136 H   0  0  0  0  0  0  0  0  0  0  0  0
  -41.8459   -0.6128   24.6085 H   0  0  0  0  0  0  0  0  0  0  0  0
  -39.6701   -4.7362   26.7236 H   0  0  0  0  0  0  0  0  0  0  0  0
  2 17  2  0
  3 21  2  0
  4 27  2  0
  5 32  1  0
  5 39  1  0
  6 11  1  0
  6 18  1  0
  6 21  1  0
  7 17  1  0
  8 27  1  0
  9 21  1  0
  9 24  1  0
 10  7  1  0
 10 12  1  0
 10 16  1  0
 11 14  1  0
 11 17  1  0
 12 13  1  0
 13  1  1  0
 13 15  1  0
 14 22  1  0
 14 23  1  0
 15  8  1  0
 15 20  1  0
 16 25  1  0
 18 19  1  0
 19 24  1  0
 20 26  1  0
 25 28  2  0
 25 29  1  0
 26 30  2  0
 26 31  1  0
 27 32  1  0
 28 33  1  0
 29 34  2  0
 30 36  1  0
 31 37  2  0
 33 35  2  0
 34 35  1  0
 36 38  2  0
 37 38  1  0
 39 40  2  0
 39 41  1  0
 40 42  1  0
 40 44  1  0
 41 43  2  0
 41 45  1  0
 42 46  2  0
 43 46  1  0
  1 51  1  0
  7 52  1  0
  8 53  1  0
  9 54  1  0
 10 47  1  0
 11 48  1  0
 12 55  1  0
 12 56  1  0
 13 49  1  0
 14 57  1  0
 15 50  1  0
 16 58  1  0
 16 59  1  0
 18 60  1  0
 18 61  1  0
 19 62  1  0
 19 63  1  0
 20 64  1  0
 20 65  1  0
 22 66  1  0
 22 67  1  0
 22 68  1  0
 23 69  1  0
 23 70  1  0
 23 71  1  0
 24 72  1  0
 24 73  1  0
 28 74  1  0
 29 75  1  0
 30 76  1  0
 31 77  1  0
 32 78  1  0
 32 79  1  0
 33 80  1  0
 34 81  1  0
 35 82  1  0
 36 83  1  0
 37 84  1  0
 38 85  1  0
 42 86  1  0
 43 87  1  0
 44 88  1  0
 44 89  1  0
 44 90  1  0
 45 91  1  0
 45 92  1  0
 45 93  1  0
 46 94  1  0
M  END
>  <LF dG>
-7.964

>  <LF VSscore>
-9.588

>  <LF Rank Score>
-7.948

>  <LF LE>
-0.173

>  <LF Structure Name>
C:\Users\Odara\AppData\Local\Temp\LeadFinder_5588_1\Ligand_1.sdf

>  <LF SDF id>
0

>  <LF Pose rank>
0

>  <LF version>
2001 1, 19 January 2019

>  <PUBCHEM_COMPOUND_CID>
92727

>  <PUBCHEM_COMPOUND_CANONICALIZED>
1

>  <PUBCHEM_CACTVS_COMPLEXITY>
940

>  <PUBCHEM_CACTVS_HBOND_ACCEPTOR>
5

>  <PUBCHEM_CACTVS_HBOND_DONOR>
4

>  <PUBCHEM_CACTVS_ROTATABLE_BOND>
15

>  <PUBCHEM_CACTVS_SUBSKEYS>
AAADcfB/uAAAAAAAAAAAAAAAAAAAAAAAAAA8YMEAAAAAAAABUAAAHgAQCAAADTzhmAYzBoPABgCIAiFSEAICCAAgIAAIiIHMCIiOdjKE8T+XeCCu1hOYqAeQwPAOAAACAAAIAAAAAAQAABAAAAAAAAAAAA==

>  <PUBCHEM_IUPAC_OPENEYE_NAME>
(2S)-N-[(1S,3S,4S)-1-benzyl-4-[[2-(2,6-dimethylphenoxy)acetyl]amino]-3-hydroxy-5-phenyl-pentyl]-3-methyl-2-(2-oxohexahydropyrimidin-1-yl)butanamide

>  <PUBCHEM_IUPAC_CAS_NAME>
(2S)-N-[(2S,4S,5S)-5-[[2-(2,6-dimethylphenoxy)-1-oxoethyl]amino]-4-hydroxy-1,6-diphenylhexan-2-yl]-3-methyl-2-(2-oxo-1,3-diazinan-1-yl)butanamide

>  <PUBCHEM_IUPAC_NAME_MARKUP>
(2<I>S</I>)-<I>N</I>-[(2<I>S</I>,4<I>S</I>,5<I>S</I>)-5-[[2-(2,6-dimethylphenoxy)acetyl]amino]-4-hydroxy-1,6-diphenylhexan-2-yl]-3-methyl-2-(2-oxo-1,3-diazinan-1-yl)butanamide

>  <PUBCHEM_IUPAC_NAME>
(2S)-N-[(2S,4S,5S)-5-[[2-(2,6-dimethylphenoxy)acetyl]amino]-4-hydroxy-1,6-diphenylhexan-2-yl]-3-methyl-2-(2-oxo-1,3-diazinan-1-yl)butanamide

>  <PUBCHEM_IUPAC_SYSTEMATIC_NAME>
(2S)-N-[(2S,4S,5S)-5-[2-(2,6-dimethylphenoxy)ethanoylamino]-4-oxidanyl-1,6-diphenyl-hexan-2-yl]-3-methyl-2-(2-oxidanylidene-1,3-diazinan-1-yl)butanamide

>  <PUBCHEM_IUPAC_TRADITIONAL_NAME>
(2S)-N-[(1S,3S,4S)-1-benzyl-4-[[2-(2,6-dimethylphenoxy)acetyl]amino]-3-hydroxy-5-phenyl-pentyl]-2-(2-ketohexahydropyrimidin-1-yl)-3-methyl-butyramide

>  <PUBCHEM_IUPAC_INCHI>
InChI=1S/C37H48N4O5/c1-25(2)34(41-20-12-19-38-37(41)45)36(44)39-30(21-28-15-7-5-8-16-28)23-32(42)31(22-29-17-9-6-10-18-29)40-33(43)24-46-35-26(3)13-11-14-27(35)4/h5-11,13-18,25,30-32,34,42H,12,19-24H2

>  <PUBCHEM_IUPAC_INCHIKEY>
KJHKTHWMRKYKJE-SUGCFTRWSA-N

>  <PUBCHEM_XLOGP3_AA>
5.9

>  <PUBCHEM_EXACT_MASS>
628.362471

>  <PUBCHEM_MOLECULAR_FORMULA>
C37H48N4O5

>  <PUBCHEM_MOLECULAR_WEIGHT>
628.8

>  <PUBCHEM_OPENEYE_CAN_SMILES>
CC1=C(C(=CC=C1)C)OCC(=O)NC(CC2=CC=CC=C2)C(CC(CC3=CC=CC=C3)NC(=O)C(C(C)C)N4CCCNC4=O)O

>  <PUBCHEM_OPENEYE_ISO_SMILES>
CC1=C(C(=CC=C1)C)OCC(=O)N[C@@H](CC2=CC=CC=C2)[C@H](C[C@H](CC3=CC=CC=C3)NC(=O)[C@H](C(C)C)N4CCCNC4=O)O

>  <PUBCHEM_CACTVS_TPSA>
120

>  <PUBCHEM_MONOISOTOPIC_WEIGHT>
628.362471

>  <PUBCHEM_TOTAL_CHARGE>
0

>  <PUBCHEM_HEAVY_ATOM_COUNT>
46

>  <PUBCHEM_ATOM_DEF_STEREO_COUNT>
4

>  <PUBCHEM_ATOM_UDEF_STEREO_COUNT>
0

>  <PUBCHEM_BOND_DEF_STEREO_COUNT>
0

>  <PUBCHEM_BOND_UDEF_STEREO_COUNT>
0

>  <PUBCHEM_ISOTOPIC_ATOM_COUNT>
0

>  <PUBCHEM_COMPONENT_COUNT>
1

>  <PUBCHEM_CACTVS_TAUTO_COUNT>
-1

>  <PUBCHEM_COORDINATE_TYPE>
1
5
255

>  <PUBCHEM_BONDANNOTATIONS>
13  1  6
11  17  5
25  28  8
25  29  8
26  30  8
26  31  8
28  33  8
29  34  8
30  36  8
31  37  8
33  35  8
34  35  8
36  38  8
37  38  8
39  40  8
39  41  8
40  42  8
41  43  8
42  46  8
43  46  8
10  7  6
15  8  5

>  <Favorite_cresset>
false

>  <MW_cresset>
628.8

>  <#Atoms_cresset>
46

>  <SlogP_cresset>
4.7

>  <TPSA_cresset>
120

>  <Flexibility_cresset>
16.1

>  <#RB_cresset>
16

>  <Rof5_cresset>
1

>  <Filename_cresset>
drag.29_857.sdf

>  <Confs_cresset>
0

>  <Poses_cresset>
0

$$$$
Site3m_DAR_D
  xed2sdf_05210316543D
 
 82 86  0  0  1  0  0  0  0  0999 V2000
  -39.6570  -11.3832   19.4823 O   0  0  0  0  0  0  0  0  0  0  0  0
  -40.8743  -11.4153   19.4369 C   0  0  0  0  0  0  0  0  0  0  0  0
  -41.6728  -12.3489   20.3204 C   0  0  0  0  0  0  0  0  0  0  0  0
  -43.0986  -11.8519   20.5761 C   0  0  0  0  0  0  0  0  0  0  0  0
  -43.7176  -11.6381   19.1920 C   0  0  0  0  0  0  0  0  0  0  0  0
  -45.1605  -11.3840   19.3477 N   0  0  0  0  0  0  0  0  0  0  0  0
  -45.7607  -10.1735   19.9404 C   0  0  0  0  0  0  0  0  0  0  0  0
  -47.0930  -10.8459   20.3206 C   0  0  0  0  0  0  0  0  0  0  0  0
  -48.3380  -10.0882   20.7315 C   0  0  0  0  0  0  0  0  0  0  0  0
  -48.1116   -8.8081   21.1464 N   0  0  0  0  0  0  0  0  0  0  0  0
  -48.6567   -7.6927   20.3594 C   0  0  0  0  0  0  0  0  0  0  0  0
  -49.1597   -6.5555   21.2629 C   0  0  0  0  0  0  0  0  0  0  0  0
  -50.2565   -5.7665   20.5321 C   0  0  0  0  0  0  0  0  0  0  0  0
  -49.6190   -4.9596   19.3920 C   0  0  0  0  0  0  0  0  0  0  0  0
  -50.4488   -5.1202   18.1093 C   0  0  0  0  0  0  0  0  0  0  0  0
  -49.5064   -5.0470   16.8980 C   0  0  0  0  0  0  0  0  0  0  0  0
  -49.7979   -3.8955   16.0320 N   0  0  0  0  0  0  0  0  0  0  0  0
  -48.7898   -3.1381   15.5507 C   0  0  0  0  0  0  0  0  0  0  0  0
  -47.6029   -3.3462   15.7944 O   0  0  0  0  0  0  0  0  0  0  0  0
  -49.1017   -1.9579   14.7064 C   0  0  0  0  0  0  0  0  0  0  0  0
  -50.4139   -1.7090   14.3617 C   0  0  0  0  0  0  0  0  0  0  0  0
  -50.7295   -0.6384   13.5660 C   0  0  0  0  0  0  0  0  0  0  0  0
  -49.8174    0.2252   13.0779 N   0  0  0  0  0  0  0  0  0  0  0  0
  -48.5439   -0.0197   13.4294 C   0  0  0  0  0  0  0  0  0  0  0  0
  -48.1400   -1.0745   14.2298 C   0  0  0  0  0  0  0  0  0  0  0  0
  -46.7923   -1.2240   14.5796 N   0  0  0  0  0  0  0  0  0  0  0  0
  -46.1901   -0.7288   15.6780 C   0  0  0  0  0  0  0  0  0  0  0  0
  -46.7279    0.0131   16.4872 O   0  0  0  0  0  0  0  0  0  0  0  0
  -44.7523   -1.2003   15.7857 C   0  0  0  0  0  0  0  0  0  0  0  0
  -44.0656   -1.0202   17.1335 C   0  0  0  0  0  0  0  0  0  0  0  0
  -43.5663   -2.0879   17.8487 C   0  0  0  0  0  0  0  0  0  0  0  0
  -42.9399   -1.8877   19.0577 C   0  0  0  0  0  0  0  0  0  0  0  0
  -42.7999   -0.6139   19.5570 C   0  0  0  0  0  0  0  0  0  0  0  0
  -43.2870    0.4585   18.8442 C   0  0  0  0  0  0  0  0  0  0  0  0
  -43.0977    2.0723   19.4646 Cl  0  0  0  0  0  0  0  0  0  0  0  0
  -43.9198    0.2529   17.6383 C   0  0  0  0  0  0  0  0  0  0  0  0
  -49.5294  -10.7057   20.6649 C   0  0  0  0  0  0  0  0  0  0  0  0
  -49.6084  -12.0827   20.1773 C   0  0  0  0  0  0  0  0  0  0  0  0
  -48.6156  -12.5740   19.4386 C   0  0  0  0  0  0  0  0  0  0  0  0
  -47.4125  -11.7280   19.1115 C   0  0  0  0  0  0  0  0  0  0  0  0
  -46.0405  -12.3050   18.9261 C   0  0  0  0  0  0  0  0  0  0  0  0
  -45.7803  -13.4098   18.4701 O   0  0  0  0  0  0  0  0  0  0  0  0
  -42.9384  -10.5877   18.4266 C   0  0  0  0  0  0  0  0  0  0  0  0
  -43.4735   -9.7846   17.6820 O   0  0  0  0  0  0  0  0  0  0  0  0
  -41.5998  -10.6208   18.6172 N   0  0  0  0  0  0  0  0  0  0  0  0
  -41.2021  -12.4408   21.1977 H   0  0  0  0  0  0  0  0  0  0  0  0
  -41.7425  -13.2257   19.8448 H   0  0  0  0  0  0  0  0  0  0  0  0
  -43.0838  -10.9945   21.0904 H   0  0  0  0  0  0  0  0  0  0  0  0
  -43.6258  -12.5068   21.1175 H   0  0  0  0  0  0  0  0  0  0  0  0
  -43.6490  -12.4573   18.6228 H   0  0  0  0  0  0  0  0  0  0  0  0
  -45.8715   -9.4297   19.2812 H   0  0  0  0  0  0  0  0  0  0  0  0
  -45.2518   -9.7144   20.6683 H   0  0  0  0  0  0  0  0  0  0  0  0
  -46.9007  -11.2638   21.2082 H   0  0  0  0  0  0  0  0  0  0  0  0
  -47.9374   -8.6699   21.9989 H   0  0  0  0  0  0  0  0  0  0  0  0
  -49.4163   -8.0277   19.8020 H   0  0  0  0  0  0  0  0  0  0  0  0
  -47.9253   -7.3311   19.7816 H   0  0  0  0  0  0  0  0  0  0  0  0
  -48.3997   -5.9453   21.4872 H   0  0  0  0  0  0  0  0  0  0  0  0
  -49.5343   -6.9411   22.1062 H   0  0  0  0  0  0  0  0  0  0  0  0
  -50.7085   -5.1461   21.1728 H   0  0  0  0  0  0  0  0  0  0  0  0
  -50.9341   -6.3996   20.1576 H   0  0  0  0  0  0  0  0  0  0  0  0
  -48.6885   -5.2884   19.2310 H   0  0  0  0  0  0  0  0  0  0  0  0
  -49.5939   -3.9930   19.6472 H   0  0  0  0  0  0  0  0  0  0  0  0
  -51.1293   -4.3894   18.0538 H   0  0  0  0  0  0  0  0  0  0  0  0
  -50.9210   -6.0015   18.1183 H   0  0  0  0  0  0  0  0  0  0  0  0
  -49.6019   -5.8868   16.3635 H   0  0  0  0  0  0  0  0  0  0  0  0
  -48.5738   -4.9402   17.2427 H   0  0  0  0  0  0  0  0  0  0  0  0
  -50.6350   -3.6811   15.8617 H   0  0  0  0  0  0  0  0  0  0  0  0
  -51.1385   -2.3126   14.6941 H   0  0  0  0  0  0  0  0  0  0  0  0
  -51.6908   -0.4895   13.3346 H   0  0  0  0  0  0  0  0  0  0  0  0
  -47.8392    0.6028   13.0890 H   0  0  0  0  0  0  0  0  0  0  0  0
  -46.2937   -1.6996   14.0309 H   0  0  0  0  0  0  0  0  0  0  0  0
  -44.2181   -0.7015   15.1031 H   0  0  0  0  0  0  0  0  0  0  0  0
  -44.7921   -2.1894   15.6457 H   0  0  0  0  0  0  0  0  0  0  0  0
  -43.6601   -3.0150   17.4860 H   0  0  0  0  0  0  0  0  0  0  0  0
  -42.5865   -2.6686   19.5732 H   0  0  0  0  0  0  0  0  0  0  0  0
  -42.3452   -0.4670   20.4356 H   0  0  0  0  0  0  0  0  0  0  0  0
  -44.2757    1.0339   17.1252 H   0  0  0  0  0  0  0  0  0  0  0  0
  -50.3595  -10.2253   20.9478 H   0  0  0  0  0  0  0  0  0  0  0  0
  -50.4018  -12.6502   20.3967 H   0  0  0  0  0  0  0  0  0  0  0  0
  -48.6688  -13.5125   19.0979 H   0  0  0  0  0  0  0  0  0  0  0  0
  -47.7337  -11.3626   18.2377 H   0  0  0  0  0  0  0  0  0  0  0  0
  -41.1357  -10.0421   18.1434 H   0  0  0  0  0  0  0  0  0  0  0  0
  1  2  2  0
  2  3  1  0
  2 45  1  0
  3  4  1  0
  4  5  1  0
  5  6  1  0
  5 43  1  0
  6  7  1  0
  6 41  1  0
  7  8  1  0
  8  9  1  0
  8 40  1  0
  9 10  1  0
  9 37  2  0
 10 11  1  0
 11 12  1  0
 12 13  1  0
 13 14  1  0
 14 15  1  0
 15 16  1  0
 16 17  1  0
 17 18  1  0
 18 19  2  0
 18 20  1  0
 20 21  2  0
 20 25  1  0
 21 22  1  0
 22 23  2  0
 23 24  1  0
 24 25  2  0
 25 26  1  0
 26 27  1  0
 27 28  2  0
 27 29  1  0
 29 30  1  0
 30 31  2  0
 30 36  1  0
 31 32  1  0
 32 33  2  0
 33 34  1  0
 34 35  1  0
 34 36  2  0
 37 38  1  0
 38 39  2  0
 39 40  1  0
 40 41  1  0
 41 42  2  0
 43 44  2  0
 43 45  1  0
  3 46  1  0
  3 47  1  0
  4 48  1  0
  4 49  1  0
  5 50  1  0
  7 51  1  0
  7 52  1  0
  8 53  1  0
 10 54  1  0
 11 55  1  0
 11 56  1  0
 12 57  1  0
 12 58  1  0
 13 59  1  0
 13 60  1  0
 14 61  1  0
 14 62  1  0
 15 63  1  0
 15 64  1  0
 16 65  1  0
 16 66  1  0
 17 67  1  0
 21 68  1  0
 22 69  1  0
 24 70  1  0
 26 71  1  0
 29 72  1  0
 29 73  1  0
 31 74  1  0
 32 75  1  0
 33 76  1  0
 36 77  1  0
 37 78  1  0
 38 79  1  0
 39 80  1  0
 40 81  1  0
 45 82  1  0
M  END
>  <LF dG>
-8.302

>  <LF VSscore>
-9.889

>  <LF Rank Score>
-3.299

>  <LF LE>
-0.184

>  <LF Structure Name>
C:\Users\Odara\AppData\Local\Temp\LeadFinder_5600_1\Ligand_1.sdf

>  <LF SDF id>
0

>  <LF Pose rank>
0

>  <LF version>
2001 1, 19 January 2019

>  <Favorite_cresset>
false

>  <MW_cresset>
633.1

>  <#Atoms_cresset>
45

>  <SlogP_cresset>
2.9

>  <TPSA_cresset>
149.6

>  <Flexibility_cresset>
10.4

>  <#RB_cresset>
13

>  <Rof5_cresset>
2

>  <Filename_cresset>
drag.0_442.sdf

>  <Confs_cresset>
0

>  <Poses_cresset>
0

$$$$
Site3m_Disulfiram_D
  xed2sdf_05210316543D
 
 36 35  0  0  0  0  0  0  0  0999 V2000
  -46.1364   -1.0000   19.6383 S   0  0  0  0  0  0  0  0  0  0  0  0
  -46.8855   -0.2388   17.9119 S   0  0  0  0  0  0  0  0  0  0  0  0
  -44.7431    0.8300   21.5763 S   0  0  0  0  0  0  0  0  0  0  0  0
  -46.5470   -3.1333   17.1678 S   0  0  0  0  0  0  0  0  0  0  0  0
  -43.8635    0.2924   19.0641 N   0  0  0  0  0  0  0  0  0  0  0  0
  -46.1990   -1.0541   15.4563 N   0  0  0  0  0  0  0  0  0  0  0  0
  -42.7243   -0.6338   18.9607 C   0  0  0  0  0  0  0  0  0  0  0  0
  -43.6777    1.6269   18.4689 C   0  0  0  0  0  0  0  0  0  0  0  0
  -44.8084   -0.7050   15.1232 C   0  0  0  0  0  0  0  0  0  0  0  0
  -47.2421   -0.4912   14.5817 C   0  0  0  0  0  0  0  0  0  0  0  0
  -43.0351   -1.8935   18.1341 C   0  0  0  0  0  0  0  0  0  0  0  0
  -42.4134    2.2838   19.0446 C   0  0  0  0  0  0  0  0  0  0  0  0
  -43.9973   -1.8897   14.5713 C   0  0  0  0  0  0  0  0  0  0  0  0
  -48.1857   -1.6085   14.1101 C   0  0  0  0  0  0  0  0  0  0  0  0
  -44.8142    0.0872   20.0254 C   0  0  0  0  0  0  0  0  0  0  0  0
  -46.5047   -1.4715   16.7219 C   0  0  0  0  0  0  0  0  0  0  0  0
  -42.4571   -0.9145   19.8825 H   0  0  0  0  0  0  0  0  0  0  0  0
  -41.9894   -0.1466   18.4890 H   0  0  0  0  0  0  0  0  0  0  0  0
  -44.4734    2.1970   18.6736 H   0  0  0  0  0  0  0  0  0  0  0  0
  -43.5780    1.5349   17.4782 H   0  0  0  0  0  0  0  0  0  0  0  0
  -44.3581   -0.3670   15.9497 H   0  0  0  0  0  0  0  0  0  0  0  0
  -44.8423   -0.0112   14.4040 H   0  0  0  0  0  0  0  0  0  0  0  0
  -46.8142   -0.0580   13.7885 H   0  0  0  0  0  0  0  0  0  0  0  0
  -47.7679    0.1895   15.0919 H   0  0  0  0  0  0  0  0  0  0  0  0
  -43.9807   -1.8464   17.8123 H   0  0  0  0  0  0  0  0  0  0  0  0
  -42.4151   -1.9455   17.3514 H   0  0  0  0  0  0  0  0  0  0  0  0
  -42.9117   -2.7075   18.7018 H   0  0  0  0  0  0  0  0  0  0  0  0
  -41.9915    1.6581   19.7009 H   0  0  0  0  0  0  0  0  0  0  0  0
  -41.7690    2.4816   18.3058 H   0  0  0  0  0  0  0  0  0  0  0  0
  -42.6567    3.1391   19.5018 H   0  0  0  0  0  0  0  0  0  0  0  0
  -44.5833   -2.6995   14.5408 H   0  0  0  0  0  0  0  0  0  0  0  0
  -43.6705   -1.6757   13.6506 H   0  0  0  0  0  0  0  0  0  0  0  0
  -43.2108   -2.0643   15.1634 H   0  0  0  0  0  0  0  0  0  0  0  0
  -47.8833   -2.4773   14.5020 H   0  0  0  0  0  0  0  0  0  0  0  0
  -49.1193   -1.4108   14.4091 H   0  0  0  0  0  0  0  0  0  0  0  0
  -48.1689   -1.6645   13.1117 H   0  0  0  0  0  0  0  0  0  0  0  0
  1  2  1  0
  1 15  1  0
  2 16  1  0
  3 15  2  0
  4 16  2  0
  5  7  1  0
  5  8  1  0
  5 15  1  0
  6  9  1  0
  6 10  1  0
  6 16  1  0
  7 11  1  0
  8 12  1  0
  9 13  1  0
 10 14  1  0
  7 17  1  0
  7 18  1  0
  8 19  1  0
  8 20  1  0
  9 21  1  0
  9 22  1  0
 10 23  1  0
 10 24  1  0
 11 25  1  0
 11 26  1  0
 11 27  1  0
 12 28  1  0
 12 29  1  0
 12 30  1  0
 13 31  1  0
 13 32  1  0
 13 33  1  0
 14 34  1  0
 14 35  1  0
 14 36  1  0
M  END
>  <LF dG>
-5.897

>  <LF VSscore>
-5.643

>  <LF Rank Score>
-2.549

>  <LF LE>
-0.369

>  <LF Structure Name>
C:\Users\Odara\AppData\Local\Temp\LeadFinder_408_1\Ligand_1.sdf

>  <LF SDF id>
0

>  <LF Pose rank>
0

>  <LF version>
2001 1, 19 January 2019

>  <PUBCHEM_COMPOUND_CID>
3117

>  <PUBCHEM_COMPOUND_CANONICALIZED>
1

>  <PUBCHEM_CACTVS_COMPLEXITY>
201

>  <PUBCHEM_CACTVS_HBOND_ACCEPTOR>
4

>  <PUBCHEM_CACTVS_HBOND_DONOR>
0

>  <PUBCHEM_CACTVS_ROTATABLE_BOND>
7

>  <PUBCHEM_CACTVS_SUBSKEYS>
AAADceBzAABwAAAAAAAAAAAAAAAAAAAAAAAAAAAAAAAAAAAAAAAAHAQAAAAAAADBAAQCAAMAAAAEAAAAAAAAAAAAAAgAAAAIAAAAAAAAAAAAAAAAAACAAAAAAAAAAAAAAAAAAAAAAAAAAAAAAAAAAAAAAA==

>  <PUBCHEM_IUPAC_OPENEYE_NAME>
diethylcarbamothioylsulfanyl N,N-diethylcarbamodithioate

>  <PUBCHEM_IUPAC_CAS_NAME>
N,N-diethylcarbamodithioic acid [[diethylamino(sulfanylidene)methyl]thio] ester

>  <PUBCHEM_IUPAC_NAME_MARKUP>
diethylcarbamothioylsulfanyl <I>N</I>,<I>N</I>-diethylcarbamodithioate

>  <PUBCHEM_IUPAC_NAME>
diethylcarbamothioylsulfanyl N,N-diethylcarbamodithioate

>  <PUBCHEM_IUPAC_SYSTEMATIC_NAME>
diethylcarbamothioylsulfanyl N,N-diethylcarbamodithioate

>  <PUBCHEM_IUPAC_TRADITIONAL_NAME>
N,N-diethylcarbamodithioic acid (diethylthiocarbamoylthio) ester

>  <PUBCHEM_IUPAC_INCHI>
InChI=1S/C10H20N2S4/c1-5-11(6-2)9(13)15-16-10(14)12(7-3)8-4/h5-8H2,1-4H3

>  <PUBCHEM_IUPAC_INCHIKEY>
AUZONCFQVSMFAP-UHFFFAOYSA-N

>  <PUBCHEM_XLOGP3>
3.9

>  <PUBCHEM_EXACT_MASS>
296.050933

>  <PUBCHEM_MOLECULAR_FORMULA>
C10H20N2S4

>  <PUBCHEM_MOLECULAR_WEIGHT>
296.5

>  <PUBCHEM_OPENEYE_CAN_SMILES>
CCN(CC)C(=S)SSC(=S)N(CC)CC

>  <PUBCHEM_OPENEYE_ISO_SMILES>
CCN(CC)C(=S)SSC(=S)N(CC)CC

>  <PUBCHEM_CACTVS_TPSA>
121

>  <PUBCHEM_MONOISOTOPIC_WEIGHT>
296.050933

>  <PUBCHEM_TOTAL_CHARGE>
0

>  <PUBCHEM_HEAVY_ATOM_COUNT>
16

>  <PUBCHEM_ATOM_DEF_STEREO_COUNT>
0

>  <PUBCHEM_ATOM_UDEF_STEREO_COUNT>
0

>  <PUBCHEM_BOND_DEF_STEREO_COUNT>
0

>  <PUBCHEM_BOND_UDEF_STEREO_COUNT>
0

>  <PUBCHEM_ISOTOPIC_ATOM_COUNT>
0

>  <PUBCHEM_COMPONENT_COUNT>
1

>  <PUBCHEM_CACTVS_TAUTO_COUNT>
-1

>  <PUBCHEM_COORDINATE_TYPE>
1
5
255

>  <Favorite_cresset>
false

>  <MW_cresset>
296.5

>  <#Atoms_cresset>
16

>  <SlogP_cresset>
3.6

>  <TPSA_cresset>
6.5

>  <Flexibility_cresset>
7.5

>  <#RB_cresset>
9

>  <Rof5_cresset>
0

>  <Filename_cresset>
drag.44_645.sdf

>  <Confs_cresset>
0

>  <Poses_cresset>
0

$$$$
W_Site3m_Baicalein_D
  xed2sdf_05210316543D
 
 30 32  0  0  0  0  0  0  0  0999 V2000
  -46.4982   -2.3542   17.0599 O   0  0  0  0  0  0  0  0  0  0  0  0
  -48.3510   -0.7734   12.8757 O   0  0  0  0  0  0  0  0  0  0  0  0
  -50.2236   -2.7134   13.0184 O   0  0  0  0  0  0  0  0  0  0  0  0
  -50.2513   -4.4625   15.1362 O   0  0  0  0  0  0  0  0  0  0  0  0
  -46.1975    0.3609   14.0829 O   0  0  0  0  0  0  0  0  0  0  0  0
  -47.3705   -1.4975   14.9583 C   0  0  0  0  0  0  0  0  0  0  0  0
  -47.3915   -2.3942   16.0325 C   0  0  0  0  0  0  0  0  0  0  0  0
  -45.5573   -1.3556   17.0697 C   0  0  0  0  0  0  0  0  0  0  0  0
  -48.3326   -1.6184   13.9412 C   0  0  0  0  0  0  0  0  0  0  0  0
  -46.3366   -0.4778   14.9721 C   0  0  0  0  0  0  0  0  0  0  0  0
  -45.4413   -0.4351   16.0701 C   0  0  0  0  0  0  0  0  0  0  0  0
  -44.6425   -1.3198   18.2395 C   0  0  0  0  0  0  0  0  0  0  0  0
  -48.3615   -3.3792   16.0719 C   0  0  0  0  0  0  0  0  0  0  0  0
  -49.2860   -2.6041   14.0079 C   0  0  0  0  0  0  0  0  0  0  0  0
  -49.3040   -3.4905   15.0763 C   0  0  0  0  0  0  0  0  0  0  0  0
  -45.0073   -0.7715   19.4617 C   0  0  0  0  0  0  0  0  0  0  0  0
  -43.3727   -1.8626   18.1140 C   0  0  0  0  0  0  0  0  0  0  0  0
  -44.1293   -0.7662   20.5184 C   0  0  0  0  0  0  0  0  0  0  0  0
  -42.4952   -1.8560   19.1707 C   0  0  0  0  0  0  0  0  0  0  0  0
  -42.8722   -1.3078   20.3758 C   0  0  0  0  0  0  0  0  0  0  0  0
  -47.7431   -1.0781   12.1392 H   0  0  0  0  0  0  0  0  0  0  0  0
  -49.9176   -2.2678   12.1699 H   0  0  0  0  0  0  0  0  0  0  0  0
  -49.9314   -5.3158   14.7094 H   0  0  0  0  0  0  0  0  0  0  0  0
  -44.7294    0.2657   16.1118 H   0  0  0  0  0  0  0  0  0  0  0  0
  -48.3776   -4.0222   16.8376 H   0  0  0  0  0  0  0  0  0  0  0  0
  -45.9190   -0.3764   19.5741 H   0  0  0  0  0  0  0  0  0  0  0  0
  -43.0919   -2.2643   17.2423 H   0  0  0  0  0  0  0  0  0  0  0  0
  -44.4045   -0.3678   21.3934 H   0  0  0  0  0  0  0  0  0  0  0  0
  -41.5820   -2.2498   19.0645 H   0  0  0  0  0  0  0  0  0  0  0  0
  -42.2337   -1.3030   21.1456 H   0  0  0  0  0  0  0  0  0  0  0  0
  1  7  1  0
  1  8  1  0
  2  9  1  0
  3 14  1  0
  4 15  1  0
  5 10  2  0
  6  7  2  0
  6  9  1  0
  6 10  1  0
  7 13  1  0
  8 11  2  0
  8 12  1  0
  9 14  2  0
 10 11  1  0
 12 16  2  0
 12 17  1  0
 13 15  2  0
 14 15  1  0
 16 18  1  0
 17 19  2  0
 18 20  2  0
 19 20  1  0
  2 21  1  0
  3 22  1  0
  4 23  1  0
 11 24  1  0
 13 25  1  0
 16 26  1  0
 17 27  1  0
 18 28  1  0
 19 29  1  0
 20 30  1  0
M  END
>  <LF dG>
-6.661

>  <LF VSscore>
-7.996

>  <LF Rank Score>
-9.474

>  <LF LE>
-0.333

>  <LF Structure Name>
C:\Users\Odara\AppData\Local\Temp\LeadFinder_1168_1\Ligand_1.sdf

>  <LF SDF id>
0

>  <LF Pose rank>
0

>  <LF version>
2001 1, 19 January 2019

>  <PUBCHEM_COMPOUND_CID>
5281605

>  <PUBCHEM_COMPOUND_CANONICALIZED>
1

>  <PUBCHEM_CACTVS_COMPLEXITY>
413

>  <PUBCHEM_CACTVS_HBOND_ACCEPTOR>
5

>  <PUBCHEM_CACTVS_HBOND_DONOR>
3

>  <PUBCHEM_CACTVS_ROTATABLE_BOND>
1

>  <PUBCHEM_CACTVS_SUBSKEYS>
AAADccBwOAAAAAAAAAAAAAAAAAAAAAAAAAAwYIAAAAAAAACBQAAAGgAACAAADASAmAAwBoAABgCIAqBSAAACCAAkIAAIiAEGiMgNJzaGNRqCeWGl4BUJuQfK7LzOIQABCAAIQABCAAIQABCAAAAAAAAAAA==

>  <PUBCHEM_IUPAC_OPENEYE_NAME>
5,6,7-trihydroxy-2-phenyl-chromen-4-one

>  <PUBCHEM_IUPAC_CAS_NAME>
5,6,7-trihydroxy-2-phenyl-1-benzopyran-4-one

>  <PUBCHEM_IUPAC_NAME_MARKUP>
5,6,7-trihydroxy-2-phenylchromen-4-one

>  <PUBCHEM_IUPAC_NAME>
5,6,7-trihydroxy-2-phenylchromen-4-one

>  <PUBCHEM_IUPAC_SYSTEMATIC_NAME>
5,6,7-tris(oxidanyl)-2-phenyl-chromen-4-one

>  <PUBCHEM_IUPAC_TRADITIONAL_NAME>
5,6,7-trihydroxy-2-phenyl-chromone

>  <PUBCHEM_IUPAC_INCHI>
InChI=1S/C15H10O5/c16-9-6-11(8-4-2-1-3-5-8)20-12-7-10(17)14(18)15(19)13(9)12/h1-7,17-19H

>  <PUBCHEM_IUPAC_INCHIKEY>
FXNFHKRTJBSTCS-UHFFFAOYSA-N

>  <PUBCHEM_XLOGP3>
1.7

>  <PUBCHEM_EXACT_MASS>
270.052823

>  <PUBCHEM_MOLECULAR_FORMULA>
C15H10O5

>  <PUBCHEM_MOLECULAR_WEIGHT>
270.24

>  <PUBCHEM_OPENEYE_CAN_SMILES>
C1=CC=C(C=C1)C2=CC(=O)C3=C(O2)C=C(C(=C3O)O)O

>  <PUBCHEM_OPENEYE_ISO_SMILES>
C1=CC=C(C=C1)C2=CC(=O)C3=C(O2)C=C(C(=C3O)O)O

>  <PUBCHEM_CACTVS_TPSA>
87

>  <PUBCHEM_MONOISOTOPIC_WEIGHT>
270.052823

>  <PUBCHEM_TOTAL_CHARGE>
0

>  <PUBCHEM_HEAVY_ATOM_COUNT>
20

>  <PUBCHEM_ATOM_DEF_STEREO_COUNT>
0

>  <PUBCHEM_ATOM_UDEF_STEREO_COUNT>
0

>  <PUBCHEM_BOND_DEF_STEREO_COUNT>
0

>  <PUBCHEM_BOND_UDEF_STEREO_COUNT>
0

>  <PUBCHEM_ISOTOPIC_ATOM_COUNT>
0

>  <PUBCHEM_COMPONENT_COUNT>
1

>  <PUBCHEM_CACTVS_TAUTO_COUNT>
-1

>  <PUBCHEM_COORDINATE_TYPE>
1
5
255

>  <PUBCHEM_BONDANNOTATIONS>
1  7  8
1  8  8
10  11  8
12  16  8
12  17  8
13  15  8
14  15  8
16  18  8
17  19  8
18  20  8
19  20  8
6  10  8
6  7  8
6  9  8
7  13  8
8  11  8
9  14  8

>  <Favorite_cresset>
false

>  <MW_cresset>
270.2

>  <#Atoms_cresset>
20

>  <SlogP_cresset>
2.3

>  <TPSA_cresset>
87

>  <Flexibility_cresset>
1.7

>  <#RB_cresset>
4

>  <Rof5_cresset>
0

>  <Filename_cresset>
drag.16_872.sdf

>  <Confs_cresset>
0

>  <Poses_cresset>
0

$$$$
Site3m_Baicalein_D
  xed2sdf_05210316543D
 
 30 32  0  0  0  0  0  0  0  0999 V2000
  -46.2241   -2.2307   17.1534 O   0  0  0  0  0  0  0  0  0  0  0  0
  -48.9050   -1.7020   13.1563 O   0  0  0  0  0  0  0  0  0  0  0  0
  -50.3063   -3.9043   13.8537 O   0  0  0  0  0  0  0  0  0  0  0  0
  -49.6944   -5.2644   16.1606 O   0  0  0  0  0  0  0  0  0  0  0  0
  -46.8841   -0.0245   13.8337 O   0  0  0  0  0  0  0  0  0  0  0  0
  -47.5259   -1.8975   15.1269 C   0  0  0  0  0  0  0  0  0  0  0  0
  -47.2206   -2.5965   16.3000 C   0  0  0  0  0  0  0  0  0  0  0  0
  -45.4780   -1.1193   16.8513 C   0  0  0  0  0  0  0  0  0  0  0  0
  -48.5730   -2.3496   14.3060 C   0  0  0  0  0  0  0  0  0  0  0  0
  -46.7209   -0.7262   14.8309 C   0  0  0  0  0  0  0  0  0  0  0  0
  -45.6898   -0.3657   15.7343 C   0  0  0  0  0  0  0  0  0  0  0  0
  -44.4035   -0.7628   17.8149 C   0  0  0  0  0  0  0  0  0  0  0  0
  -47.9580   -3.7196   16.6275 C   0  0  0  0  0  0  0  0  0  0  0  0
  -49.2882   -3.4680   14.6558 C   0  0  0  0  0  0  0  0  0  0  0  0
  -48.9821   -4.1586   15.8207 C   0  0  0  0  0  0  0  0  0  0  0  0
  -44.5606    0.3693   18.6004 C   0  0  0  0  0  0  0  0  0  0  0  0
  -43.2442   -1.5118   17.9678 C   0  0  0  0  0  0  0  0  0  0  0  0
  -43.5970    0.7414   19.5061 C   0  0  0  0  0  0  0  0  0  0  0  0
  -42.2807   -1.1392   18.8735 C   0  0  0  0  0  0  0  0  0  0  0  0
  -42.4540   -0.0126   19.6447 C   0  0  0  0  0  0  0  0  0  0  0  0
  -48.1360   -1.6482   12.5153 H   0  0  0  0  0  0  0  0  0  0  0  0
  -50.0986   -4.8028   13.4515 H   0  0  0  0  0  0  0  0  0  0  0  0
  -49.9085   -5.8270   15.3542 H   0  0  0  0  0  0  0  0  0  0  0  0
  -45.1213    0.4368   15.5540 H   0  0  0  0  0  0  0  0  0  0  0  0
  -47.7425   -4.2216   17.4651 H   0  0  0  0  0  0  0  0  0  0  0  0
  -45.3879    0.9230   18.5062 H   0  0  0  0  0  0  0  0  0  0  0  0
  -43.1089   -2.3321   17.4121 H   0  0  0  0  0  0  0  0  0  0  0  0
  -43.7262    1.5606   20.0649 H   0  0  0  0  0  0  0  0  0  0  0  0
  -41.4508   -1.6885   18.9727 H   0  0  0  0  0  0  0  0  0  0  0  0
  -41.7516    0.2573   20.3033 H   0  0  0  0  0  0  0  0  0  0  0  0
  1  7  1  0
  1  8  1  0
  2  9  1  0
  3 14  1  0
  4 15  1  0
  5 10  2  0
  6  7  2  0
  6  9  1  0
  6 10  1  0
  7 13  1  0
  8 11  2  0
  8 12  1  0
  9 14  2  0
 10 11  1  0
 12 16  2  0
 12 17  1  0
 13 15  2  0
 14 15  1  0
 16 18  1  0
 17 19  2  0
 18 20  2  0
 19 20  1  0
  2 21  1  0
  3 22  1  0
  4 23  1  0
 11 24  1  0
 13 25  1  0
 16 26  1  0
 17 27  1  0
 18 28  1  0
 19 29  1  0
 20 30  1  0
M  END
>  <LF dG>
-6.675

>  <LF VSscore>
-7.368

>  <LF Rank Score>
-8.899

>  <LF LE>
-0.334

>  <LF Structure Name>
C:\Users\Odara\AppData\Local\Temp\LeadFinder_8576_1\Ligand_1.sdf

>  <LF SDF id>
0

>  <LF Pose rank>
0

>  <LF version>
2001 1, 19 January 2019

>  <PUBCHEM_COMPOUND_CID>
5281605

>  <PUBCHEM_COMPOUND_CANONICALIZED>
1

>  <PUBCHEM_CACTVS_COMPLEXITY>
413

>  <PUBCHEM_CACTVS_HBOND_ACCEPTOR>
5

>  <PUBCHEM_CACTVS_HBOND_DONOR>
3

>  <PUBCHEM_CACTVS_ROTATABLE_BOND>
1

>  <PUBCHEM_CACTVS_SUBSKEYS>
AAADccBwOAAAAAAAAAAAAAAAAAAAAAAAAAAwYIAAAAAAAACBQAAAGgAACAAADASAmAAwBoAABgCIAqBSAAACCAAkIAAIiAEGiMgNJzaGNRqCeWGl4BUJuQfK7LzOIQABCAAIQABCAAIQABCAAAAAAAAAAA==

>  <PUBCHEM_IUPAC_OPENEYE_NAME>
5,6,7-trihydroxy-2-phenyl-chromen-4-one

>  <PUBCHEM_IUPAC_CAS_NAME>
5,6,7-trihydroxy-2-phenyl-1-benzopyran-4-one

>  <PUBCHEM_IUPAC_NAME_MARKUP>
5,6,7-trihydroxy-2-phenylchromen-4-one

>  <PUBCHEM_IUPAC_NAME>
5,6,7-trihydroxy-2-phenylchromen-4-one

>  <PUBCHEM_IUPAC_SYSTEMATIC_NAME>
5,6,7-tris(oxidanyl)-2-phenyl-chromen-4-one

>  <PUBCHEM_IUPAC_TRADITIONAL_NAME>
5,6,7-trihydroxy-2-phenyl-chromone

>  <PUBCHEM_IUPAC_INCHI>
InChI=1S/C15H10O5/c16-9-6-11(8-4-2-1-3-5-8)20-12-7-10(17)14(18)15(19)13(9)12/h1-7,17-19H

>  <PUBCHEM_IUPAC_INCHIKEY>
FXNFHKRTJBSTCS-UHFFFAOYSA-N

>  <PUBCHEM_XLOGP3>
1.7

>  <PUBCHEM_EXACT_MASS>
270.052823

>  <PUBCHEM_MOLECULAR_FORMULA>
C15H10O5

>  <PUBCHEM_MOLECULAR_WEIGHT>
270.24

>  <PUBCHEM_OPENEYE_CAN_SMILES>
C1=CC=C(C=C1)C2=CC(=O)C3=C(O2)C=C(C(=C3O)O)O

>  <PUBCHEM_OPENEYE_ISO_SMILES>
C1=CC=C(C=C1)C2=CC(=O)C3=C(O2)C=C(C(=C3O)O)O

>  <PUBCHEM_CACTVS_TPSA>
87

>  <PUBCHEM_MONOISOTOPIC_WEIGHT>
270.052823

>  <PUBCHEM_TOTAL_CHARGE>
0

>  <PUBCHEM_HEAVY_ATOM_COUNT>
20

>  <PUBCHEM_ATOM_DEF_STEREO_COUNT>
0

>  <PUBCHEM_ATOM_UDEF_STEREO_COUNT>
0

>  <PUBCHEM_BOND_DEF_STEREO_COUNT>
0

>  <PUBCHEM_BOND_UDEF_STEREO_COUNT>
0

>  <PUBCHEM_ISOTOPIC_ATOM_COUNT>
0

>  <PUBCHEM_COMPONENT_COUNT>
1

>  <PUBCHEM_CACTVS_TAUTO_COUNT>
-1

>  <PUBCHEM_COORDINATE_TYPE>
1
5
255

>  <PUBCHEM_BONDANNOTATIONS>
1  7  8
1  8  8
10  11  8
12  16  8
12  17  8
13  15  8
14  15  8
16  18  8
17  19  8
18  20  8
19  20  8
6  10  8
6  7  8
6  9  8
7  13  8
8  11  8
9  14  8

>  <Favorite_cresset>
false

>  <MW_cresset>
270.2

>  <#Atoms_cresset>
20

>  <SlogP_cresset>
2.3

>  <TPSA_cresset>
87

>  <Flexibility_cresset>
1.7

>  <#RB_cresset>
4

>  <Rof5_cresset>
0

>  <Filename_cresset>
drag.19_660.sdf

>  <Confs_cresset>
0

>  <Poses_cresset>
0

$$$$
W_Site3m_Baicalin_D
  xed2sdf_05210316543D
 
 49 52  0  0  1  0  0  0  0  0999 V2000
  -50.7628    0.6476   16.7481 O   0  0  0  0  0  0  0  0  0  0  0  0
  -49.6029   -1.0606   15.3687 O   0  0  0  0  0  0  0  0  0  0  0  0
  -52.4447    2.3269   13.2374 O   0  0  0  0  0  0  0  0  0  0  0  0
  -50.3459    0.3476   13.0581 O   0  0  0  0  0  0  0  0  0  0  0  0
  -52.5694    3.7566   15.7533 O   0  0  0  0  0  0  0  0  0  0  0  0
  -51.1028    2.9860   18.9975 O   0  5  0  0  0  0  0  0  0  0  0  0
  -53.0781    2.0591   18.3279 O   0  0  0  0  0  0  0  0  0  0  0  0
  -45.7895    0.1578   17.8002 O   0  0  0  0  0  0  0  0  0  0  0  0
  -48.1039   -2.7779   13.7502 O   0  0  0  0  0  0  0  0  0  0  0  0
  -45.4297   -3.0093   14.2014 O   0  0  0  0  0  0  0  0  0  0  0  0
  -43.3961   -2.2550   15.6007 O   0  0  0  0  0  0  0  0  0  0  0  0
  -51.5315    2.0709   14.3156 C   0  0  0  0  0  0  0  0  0  0  0  0
  -51.0617    0.6037   14.2753 C   0  0  0  0  0  0  0  0  0  0  0  0
  -52.2004    2.3715   15.6706 C   0  0  0  0  0  0  0  0  0  0  0  0
  -50.1581    0.2720   15.4853 C   0  0  0  0  0  0  0  0  0  0  0  0
  -51.2391    2.0151   16.8215 C   0  0  0  0  0  0  0  0  0  0  0  0
  -51.8515    2.3828   18.1519 C   0  0  0  0  0  0  0  0  0  0  0  0
  -48.2873   -1.1959   15.5441 C   0  0  0  0  0  0  0  0  0  0  0  0
  -47.6716   -0.4635   16.5362 C   0  0  0  0  0  0  0  0  0  0  0  0
  -47.5229   -2.0545   14.7539 C   0  0  0  0  0  0  0  0  0  0  0  0
  -46.3172   -0.5779   16.7850 C   0  0  0  0  0  0  0  0  0  0  0  0
  -45.5576   -1.4399   15.9946 C   0  0  0  0  0  0  0  0  0  0  0  0
  -46.1726   -2.1742   14.9747 C   0  0  0  0  0  0  0  0  0  0  0  0
  -44.1401   -1.5407   16.2734 C   0  0  0  0  0  0  0  0  0  0  0  0
  -44.4544    0.0095   18.0849 C   0  0  0  0  0  0  0  0  0  0  0  0
  -43.6203   -0.7936   17.3611 C   0  0  0  0  0  0  0  0  0  0  0  0
  -43.9523    0.7832   19.2493 C   0  0  0  0  0  0  0  0  0  0  0  0
  -42.6043    0.6966   19.5632 C   0  0  0  0  0  0  0  0  0  0  0  0
  -44.7611    1.5906   20.0374 C   0  0  0  0  0  0  0  0  0  0  0  0
  -42.0780    1.3915   20.6240 C   0  0  0  0  0  0  0  0  0  0  0  0
  -44.2344    2.2857   21.0996 C   0  0  0  0  0  0  0  0  0  0  0  0
  -42.8933    2.1886   21.3951 C   0  0  0  0  0  0  0  0  0  0  0  0
  -50.7384    2.6706   14.2095 H   0  0  0  0  0  0  0  0  0  0  0  0
  -51.8729    0.0205   14.3160 H   0  0  0  0  0  0  0  0  0  0  0  0
  -53.0279    1.8155   15.7479 H   0  0  0  0  0  0  0  0  0  0  0  0
  -49.3478    0.8577   15.4747 H   0  0  0  0  0  0  0  0  0  0  0  0
  -50.4117    2.5678   16.7228 H   0  0  0  0  0  0  0  0  0  0  0  0
  -52.1546    1.8621   12.3937 H   0  0  0  0  0  0  0  0  0  0  0  0
  -50.9651    0.0374   12.3282 H   0  0  0  0  0  0  0  0  0  0  0  0
  -51.8773    4.3473   15.3247 H   0  0  0  0  0  0  0  0  0  0  0  0
  -47.7385   -3.7125   13.7128 H   0  0  0  0  0  0  0  0  0  0  0  0
  -45.9164   -3.8704   14.0165 H   0  0  0  0  0  0  0  0  0  0  0  0
  -48.2181    0.1655   17.0892 H   0  0  0  0  0  0  0  0  0  0  0  0
  -42.6502   -0.8546   17.5963 H   0  0  0  0  0  0  0  0  0  0  0  0
  -42.0060    0.1190   19.0079 H   0  0  0  0  0  0  0  0  0  0  0  0
  -45.7365    1.6674   19.8302 H   0  0  0  0  0  0  0  0  0  0  0  0
  -41.1036    1.3185   20.8363 H   0  0  0  0  0  0  0  0  0  0  0  0
  -44.8274    2.8641   21.6595 H   0  0  0  0  0  0  0  0  0  0  0  0
  -42.5123    2.6957   22.1680 H   0  0  0  0  0  0  0  0  0  0  0  0
  1 15  1  0
  1 16  1  0
  2 18  1  0
  6 17  1  0
  7 17  2  0
  8 21  1  0
  8 25  1  0
  9 20  1  0
 10 23  1  0
 11 24  2  0
 12  3  1  0
 12 13  1  0
 12 14  1  0
 13  4  1  0
 13 15  1  0
 14  5  1  0
 14 16  1  0
 15  2  1  0
 16 17  1  0
 18 19  2  0
 18 20  1  0
 19 21  1  0
 20 23  2  0
 21 22  2  0
 22 23  1  0
 22 24  1  0
 24 26  1  0
 25 26  2  0
 25 27  1  0
 27 28  2  0
 27 29  1  0
 28 30  1  0
 29 31  2  0
 30 32  2  0
 31 32  1  0
  3 38  1  0
  4 39  1  0
  5 40  1  0
  9 41  1  0
 10 42  1  0
 12 33  1  0
 13 34  1  0
 14 35  1  0
 15 36  1  0
 16 37  1  0
 19 43  1  0
 26 44  1  0
 28 45  1  0
 29 46  1  0
 30 47  1  0
 31 48  1  0
 32 49  1  0
M  CHG  1   6  -1
M  END
>  <LF dG>
-6.158

>  <LF VSscore>
-9.606

>  <LF Rank Score>
-9.35

>  <LF LE>
-0.192

>  <LF Structure Name>
C:\Users\Odara\AppData\Local\Temp\LeadFinder_7648_1\Ligand_1.sdf

>  <LF SDF id>
0

>  <LF Pose rank>
0

>  <LF version>
2001 1, 19 January 2019

>  <PUBCHEM_COMPOUND_CID>
64982

>  <PUBCHEM_COMPOUND_CANONICALIZED>
1

>  <PUBCHEM_CACTVS_COMPLEXITY>
748

>  <PUBCHEM_CACTVS_HBOND_ACCEPTOR>
11

>  <PUBCHEM_CACTVS_HBOND_DONOR>
6

>  <PUBCHEM_CACTVS_ROTATABLE_BOND>
4

>  <PUBCHEM_CACTVS_SUBSKEYS>
AAADceB4PAAAAAAAAAAAAAAAAAAAAAAAAAA0YIEAAAAAAACBQAAAGgAACAAADBSwmAMwDoAABgCIAqDSCAICCAAkIAAIiAFGiMgdNzaGNR6ieWOl4BUPuQfK7LzOIQABCAAIQABCAAIQABCAAAAAAAAAAA==

>  <PUBCHEM_IUPAC_OPENEYE_NAME>
(2S,3S,4S,5R,6S)-6-(5,6-dihydroxy-4-oxo-2-phenyl-chromen-7-yl)oxy-3,4,5-trihydroxy-tetrahydropyran-2-carboxylic acid

>  <PUBCHEM_IUPAC_CAS_NAME>
(2S,3S,4S,5R,6S)-6-[(5,6-dihydroxy-4-oxo-2-phenyl-1-benzopyran-7-yl)oxy]-3,4,5-trihydroxy-2-oxanecarboxylic acid

>  <PUBCHEM_IUPAC_NAME_MARKUP>
(2<I>S</I>,3<I>S</I>,4<I>S</I>,5<I>R</I>,6<I>S</I>)-6-(5,6-dihydroxy-4-oxo-2-phenylchromen-7-yl)oxy-3,4,5-trihydroxyoxane-2-carboxylic acid

>  <PUBCHEM_IUPAC_NAME>
(2S,3S,4S,5R,6S)-6-(5,6-dihydroxy-4-oxo-2-phenylchromen-7-yl)oxy-3,4,5-trihydroxyoxane-2-carboxylic acid

>  <PUBCHEM_IUPAC_SYSTEMATIC_NAME>
(2S,3S,4S,5R,6S)-6-[5,6-bis(oxidanyl)-4-oxidanylidene-2-phenyl-chromen-7-yl]oxy-3,4,5-tris(oxidanyl)oxane-2-carboxylic acid

>  <PUBCHEM_IUPAC_TRADITIONAL_NAME>
(2S,3S,4S,5R,6S)-6-(5,6-dihydroxy-4-keto-2-phenyl-chromen-7-yl)oxy-3,4,5-trihydroxy-tetrahydropyran-2-carboxylic acid

>  <PUBCHEM_IUPAC_INCHI>
InChI=1S/C21H18O11/c22-9-6-10(8-4-2-1-3-5-8)30-11-7-12(14(23)15(24)13(9)11)31-21-18(27)16(25)17(26)19(32-21)20(28)29/h1-7,16-19,21,23-27H,(H,28,29)/t16-,17-,18+,19-,21+/m0/s1

>  <PUBCHEM_IUPAC_INCHIKEY>
IKIIZLYTISPENI-ZFORQUDYSA-N

>  <PUBCHEM_XLOGP3_AA>
1.1

>  <PUBCHEM_EXACT_MASS>
446.084911

>  <PUBCHEM_MOLECULAR_FORMULA>
C21H18O11

>  <PUBCHEM_MOLECULAR_WEIGHT>
446.4

>  <PUBCHEM_OPENEYE_CAN_SMILES>
C1=CC=C(C=C1)C2=CC(=O)C3=C(C(=C(C=C3O2)OC4C(C(C(C(O4)C(=O)O)O)O)O)O)O

>  <PUBCHEM_OPENEYE_ISO_SMILES>
C1=CC=C(C=C1)C2=CC(=O)C3=C(C(=C(C=C3O2)O[C@H]4[C@@H]([C@H]([C@@H]([C@H](O4)C(=O)O)O)O)O)O)O

>  <PUBCHEM_CACTVS_TPSA>
183

>  <PUBCHEM_MONOISOTOPIC_WEIGHT>
446.084911

>  <PUBCHEM_TOTAL_CHARGE>
0

>  <PUBCHEM_HEAVY_ATOM_COUNT>
32

>  <PUBCHEM_ATOM_DEF_STEREO_COUNT>
5

>  <PUBCHEM_ATOM_UDEF_STEREO_COUNT>
0

>  <PUBCHEM_BOND_DEF_STEREO_COUNT>
0

>  <PUBCHEM_BOND_UDEF_STEREO_COUNT>
0

>  <PUBCHEM_ISOTOPIC_ATOM_COUNT>
0

>  <PUBCHEM_COMPONENT_COUNT>
1

>  <PUBCHEM_CACTVS_TAUTO_COUNT>
-1

>  <PUBCHEM_COORDINATE_TYPE>
1
5
255

>  <PUBCHEM_BONDANNOTATIONS>
16  17  5
18  19  8
18  20  8
19  21  8
15  2  5
20  23  8
21  22  8
22  23  8
22  24  8
24  26  8
25  26  8
27  28  8
27  29  8
28  30  8
29  31  8
12  3  5
30  32  8
31  32  8
13  4  6
14  5  6
8  21  8
8  25  8

>  <Favorite_cresset>
false

>  <MW_cresset>
445.4

>  <#Atoms_cresset>
32

>  <SlogP_cresset>
1.1

>  <TPSA_cresset>
186

>  <Flexibility_cresset>
7.6

>  <#RB_cresset>
9

>  <Rof5_cresset>
1

>  <Filename_cresset>
drag.52_689.sdf

>  <Confs_cresset>
0

>  <Poses_cresset>
0

$$$$
Site3m_Baicalin_D
  xed2sdf_05210316543D
 
 49 52  0  0  1  0  0  0  0  0999 V2000
  -46.7612   -3.3507   17.5726 O   0  0  0  0  0  0  0  0  0  0  0  0
  -48.7347   -4.7752   17.6632 O   0  0  0  0  0  0  0  0  0  0  0  0
  -48.0248   -1.7702   13.8973 O   0  0  0  0  0  0  0  0  0  0  0  0
  -49.3698   -4.0421   15.0316 O   0  0  0  0  0  0  0  0  0  0  0  0
  -45.3457   -1.2921   14.8277 O   0  0  0  0  0  0  0  0  0  0  0  0
  -43.6107   -1.7634   17.0354 O   0  5  0  0  0  0  0  0  0  0  0  0
  -45.0742   -1.8127   18.7870 O   0  0  0  0  0  0  0  0  0  0  0  0
  -46.1400   -8.3840   19.1060 O   0  0  0  0  0  0  0  0  0  0  0  0
  -50.9478   -6.4931   17.1790 O   0  0  0  0  0  0  0  0  0  0  0  0
  -50.6718   -9.1618   17.7310 O   0  0  0  0  0  0  0  0  0  0  0  0
  -49.1229  -11.0522   18.5039 O   0  0  0  0  0  0  0  0  0  0  0  0
  -47.3894   -2.6269   14.8574 C   0  0  0  0  0  0  0  0  0  0  0  0
  -48.4383   -3.2588   15.7919 C   0  0  0  0  0  0  0  0  0  0  0  0
  -46.3602   -1.8357   15.6847 C   0  0  0  0  0  0  0  0  0  0  0  0
  -47.7279   -4.1393   16.8411 C   0  0  0  0  0  0  0  0  0  0  0  0
  -45.7379   -2.7902   16.7223 C   0  0  0  0  0  0  0  0  0  0  0  0
  -44.7312   -2.0632   17.5790 C   0  0  0  0  0  0  0  0  0  0  0  0
  -48.6915   -6.0945   17.8983 C   0  0  0  0  0  0  0  0  0  0  0  0
  -47.5044   -6.6135   18.3704 C   0  0  0  0  0  0  0  0  0  0  0  0
  -49.7634   -6.9665   17.6718 C   0  0  0  0  0  0  0  0  0  0  0  0
  -47.3446   -7.9599   18.6348 C   0  0  0  0  0  0  0  0  0  0  0  0
  -48.4183   -8.8186   18.4090 C   0  0  0  0  0  0  0  0  0  0  0  0
  -49.6297   -8.3110   17.9303 C   0  0  0  0  0  0  0  0  0  0  0  0
  -48.2278  -10.2270   18.6855 C   0  0  0  0  0  0  0  0  0  0  0  0
  -45.9778   -9.7222   19.3688 C   0  0  0  0  0  0  0  0  0  0  0  0
  -46.9655  -10.6453   19.1773 C   0  0  0  0  0  0  0  0  0  0  0  0
  -44.6469  -10.1294   19.8890 C   0  0  0  0  0  0  0  0  0  0  0  0
  -43.6918   -9.1482   20.1089 C   0  0  0  0  0  0  0  0  0  0  0  0
  -44.3117  -11.4484   20.1640 C   0  0  0  0  0  0  0  0  0  0  0  0
  -42.4460   -9.4696   20.5897 C   0  0  0  0  0  0  0  0  0  0  0  0
  -43.0652  -11.7692   20.6447 C   0  0  0  0  0  0  0  0  0  0  0  0
  -42.1302  -10.7818   20.8591 C   0  0  0  0  0  0  0  0  0  0  0  0
  -46.9160   -3.3558   14.3630 H   0  0  0  0  0  0  0  0  0  0  0  0
  -48.9433   -2.5341   16.2603 H   0  0  0  0  0  0  0  0  0  0  0  0
  -46.8076   -1.0726   16.1511 H   0  0  0  0  0  0  0  0  0  0  0  0
  -47.1992   -4.8727   16.4139 H   0  0  0  0  0  0  0  0  0  0  0  0
  -45.2787   -3.5257   16.2238 H   0  0  0  0  0  0  0  0  0  0  0  0
  -47.4361   -1.6185   13.0960 H   0  0  0  0  0  0  0  0  0  0  0  0
  -48.8958   -4.6542   14.3892 H   0  0  0  0  0  0  0  0  0  0  0  0
  -45.5781   -1.4197   13.8576 H   0  0  0  0  0  0  0  0  0  0  0  0
  -51.3044   -7.0782   16.4431 H   0  0  0  0  0  0  0  0  0  0  0  0
  -51.1057   -9.0179   16.8356 H   0  0  0  0  0  0  0  0  0  0  0  0
  -46.7342   -5.9951   18.5266 H   0  0  0  0  0  0  0  0  0  0  0  0
  -46.7996  -11.6099   19.3826 H   0  0  0  0  0  0  0  0  0  0  0  0
  -43.9132   -8.1926   19.9142 H   0  0  0  0  0  0  0  0  0  0  0  0
  -44.9846  -12.1723   20.0108 H   0  0  0  0  0  0  0  0  0  0  0  0
  -41.7689   -8.7503   20.7443 H   0  0  0  0  0  0  0  0  0  0  0  0
  -42.8365  -12.7231   20.8391 H   0  0  0  0  0  0  0  0  0  0  0  0
  -41.2236  -11.0176   21.2095 H   0  0  0  0  0  0  0  0  0  0  0  0
  1 15  1  0
  1 16  1  0
  2 18  1  0
  6 17  1  0
  7 17  2  0
  8 21  1  0
  8 25  1  0
  9 20  1  0
 10 23  1  0
 11 24  2  0
 12  3  1  0
 12 13  1  0
 12 14  1  0
 13  4  1  0
 13 15  1  0
 14  5  1  0
 14 16  1  0
 15  2  1  0
 16 17  1  0
 18 19  2  0
 18 20  1  0
 19 21  1  0
 20 23  2  0
 21 22  2  0
 22 23  1  0
 22 24  1  0
 24 26  1  0
 25 26  2  0
 25 27  1  0
 27 28  2  0
 27 29  1  0
 28 30  1  0
 29 31  2  0
 30 32  2  0
 31 32  1  0
  3 38  1  0
  4 39  1  0
  5 40  1  0
  9 41  1  0
 10 42  1  0
 12 33  1  0
 13 34  1  0
 14 35  1  0
 15 36  1  0
 16 37  1  0
 19 43  1  0
 26 44  1  0
 28 45  1  0
 29 46  1  0
 30 47  1  0
 31 48  1  0
 32 49  1  0
M  CHG  1   6  -1
M  END
>  <LF dG>
-5.755

>  <LF VSscore>
-10.151

>  <LF Rank Score>
-9.792

>  <LF LE>
-0.18

>  <LF Structure Name>
C:\Users\Odara\AppData\Local\Temp\LeadFinder_9476_1\Ligand_1.sdf

>  <LF SDF id>
0

>  <LF Pose rank>
0

>  <LF version>
2001 1, 19 January 2019

>  <PUBCHEM_COMPOUND_CID>
64982

>  <PUBCHEM_COMPOUND_CANONICALIZED>
1

>  <PUBCHEM_CACTVS_COMPLEXITY>
748

>  <PUBCHEM_CACTVS_HBOND_ACCEPTOR>
11

>  <PUBCHEM_CACTVS_HBOND_DONOR>
6

>  <PUBCHEM_CACTVS_ROTATABLE_BOND>
4

>  <PUBCHEM_CACTVS_SUBSKEYS>
AAADceB4PAAAAAAAAAAAAAAAAAAAAAAAAAA0YIEAAAAAAACBQAAAGgAACAAADBSwmAMwDoAABgCIAqDSCAICCAAkIAAIiAFGiMgdNzaGNR6ieWOl4BUPuQfK7LzOIQABCAAIQABCAAIQABCAAAAAAAAAAA==

>  <PUBCHEM_IUPAC_OPENEYE_NAME>
(2S,3S,4S,5R,6S)-6-(5,6-dihydroxy-4-oxo-2-phenyl-chromen-7-yl)oxy-3,4,5-trihydroxy-tetrahydropyran-2-carboxylic acid

>  <PUBCHEM_IUPAC_CAS_NAME>
(2S,3S,4S,5R,6S)-6-[(5,6-dihydroxy-4-oxo-2-phenyl-1-benzopyran-7-yl)oxy]-3,4,5-trihydroxy-2-oxanecarboxylic acid

>  <PUBCHEM_IUPAC_NAME_MARKUP>
(2<I>S</I>,3<I>S</I>,4<I>S</I>,5<I>R</I>,6<I>S</I>)-6-(5,6-dihydroxy-4-oxo-2-phenylchromen-7-yl)oxy-3,4,5-trihydroxyoxane-2-carboxylic acid

>  <PUBCHEM_IUPAC_NAME>
(2S,3S,4S,5R,6S)-6-(5,6-dihydroxy-4-oxo-2-phenylchromen-7-yl)oxy-3,4,5-trihydroxyoxane-2-carboxylic acid

>  <PUBCHEM_IUPAC_SYSTEMATIC_NAME>
(2S,3S,4S,5R,6S)-6-[5,6-bis(oxidanyl)-4-oxidanylidene-2-phenyl-chromen-7-yl]oxy-3,4,5-tris(oxidanyl)oxane-2-carboxylic acid

>  <PUBCHEM_IUPAC_TRADITIONAL_NAME>
(2S,3S,4S,5R,6S)-6-(5,6-dihydroxy-4-keto-2-phenyl-chromen-7-yl)oxy-3,4,5-trihydroxy-tetrahydropyran-2-carboxylic acid

>  <PUBCHEM_IUPAC_INCHI>
InChI=1S/C21H18O11/c22-9-6-10(8-4-2-1-3-5-8)30-11-7-12(14(23)15(24)13(9)11)31-21-18(27)16(25)17(26)19(32-21)20(28)29/h1-7,16-19,21,23-27H,(H,28,29)/t16-,17-,18+,19-,21+/m0/s1

>  <PUBCHEM_IUPAC_INCHIKEY>
IKIIZLYTISPENI-ZFORQUDYSA-N

>  <PUBCHEM_XLOGP3_AA>
1.1

>  <PUBCHEM_EXACT_MASS>
446.084911

>  <PUBCHEM_MOLECULAR_FORMULA>
C21H18O11

>  <PUBCHEM_MOLECULAR_WEIGHT>
446.4

>  <PUBCHEM_OPENEYE_CAN_SMILES>
C1=CC=C(C=C1)C2=CC(=O)C3=C(C(=C(C=C3O2)OC4C(C(C(C(O4)C(=O)O)O)O)O)O)O

>  <PUBCHEM_OPENEYE_ISO_SMILES>
C1=CC=C(C=C1)C2=CC(=O)C3=C(C(=C(C=C3O2)O[C@H]4[C@@H]([C@H]([C@@H]([C@H](O4)C(=O)O)O)O)O)O)O

>  <PUBCHEM_CACTVS_TPSA>
183

>  <PUBCHEM_MONOISOTOPIC_WEIGHT>
446.084911

>  <PUBCHEM_TOTAL_CHARGE>
0

>  <PUBCHEM_HEAVY_ATOM_COUNT>
32

>  <PUBCHEM_ATOM_DEF_STEREO_COUNT>
5

>  <PUBCHEM_ATOM_UDEF_STEREO_COUNT>
0

>  <PUBCHEM_BOND_DEF_STEREO_COUNT>
0

>  <PUBCHEM_BOND_UDEF_STEREO_COUNT>
0

>  <PUBCHEM_ISOTOPIC_ATOM_COUNT>
0

>  <PUBCHEM_COMPONENT_COUNT>
1

>  <PUBCHEM_CACTVS_TAUTO_COUNT>
-1

>  <PUBCHEM_COORDINATE_TYPE>
1
5
255

>  <PUBCHEM_BONDANNOTATIONS>
16  17  5
18  19  8
18  20  8
19  21  8
15  2  5
20  23  8
21  22  8
22  23  8
22  24  8
24  26  8
25  26  8
27  28  8
27  29  8
28  30  8
29  31  8
12  3  5
30  32  8
31  32  8
13  4  6
14  5  6
8  21  8
8  25  8

>  <Favorite_cresset>
false

>  <MW_cresset>
445.4

>  <#Atoms_cresset>
32

>  <SlogP_cresset>
1.1

>  <TPSA_cresset>
186

>  <Flexibility_cresset>
7.6

>  <#RB_cresset>
9

>  <Rof5_cresset>
1

>  <Filename_cresset>
drag.56_470.sdf

>  <Confs_cresset>
0

>  <Poses_cresset>
0

$$$$
W_Site3m_Wogonin_D
  xed2sdf_05210316543D
 
 33 35  0  0  0  0  0  0  0  0999 V2000
  -49.3627   -2.7071   15.6847 O   0  0  0  0  0  0  0  0  0  0  0  0
  -47.7055   -3.9217   17.4314 O   0  0  0  0  0  0  0  0  0  0  0  0
  -45.6247   -0.0128   14.2013 O   0  0  0  0  0  0  0  0  0  0  0  0
  -45.0668   -3.2292   17.5981 O   0  0  0  0  0  0  0  0  0  0  0  0
  -48.1314    0.2140   13.1830 O   0  0  0  0  0  0  0  0  0  0  0  0
  -47.5363   -1.3197   14.8834 C   0  0  0  0  0  0  0  0  0  0  0  0
  -48.0555   -2.3219   15.7106 C   0  0  0  0  0  0  0  0  0  0  0  0
  -50.2048   -2.1158   14.7780 C   0  0  0  0  0  0  0  0  0  0  0  0
  -47.2205   -2.9644   16.6160 C   0  0  0  0  0  0  0  0  0  0  0  0
  -48.4569   -0.6868   13.9550 C   0  0  0  0  0  0  0  0  0  0  0  0
  -46.1771   -0.9775   14.9837 C   0  0  0  0  0  0  0  0  0  0  0  0
  -49.8035   -1.1290   13.9270 C   0  0  0  0  0  0  0  0  0  0  0  0
  -51.6060   -2.6108   14.7646 C   0  0  0  0  0  0  0  0  0  0  0  0
  -45.8880   -2.6107   16.7077 C   0  0  0  0  0  0  0  0  0  0  0  0
  -45.3742   -1.6206   15.8876 C   0  0  0  0  0  0  0  0  0  0  0  0
  -51.9465   -3.6544   15.6120 C   0  0  0  0  0  0  0  0  0  0  0  0
  -52.5920   -2.0806   13.9433 C   0  0  0  0  0  0  0  0  0  0  0  0
  -53.2255   -4.1539   15.6397 C   0  0  0  0  0  0  0  0  0  0  0  0
  -53.8713   -2.5803   13.9715 C   0  0  0  0  0  0  0  0  0  0  0  0
  -54.1912   -3.6172   14.8187 C   0  0  0  0  0  0  0  0  0  0  0  0
  -48.1224   -5.1618   16.8249 C   0  0  0  0  0  0  0  0  0  0  0  0
  -45.4576   -0.3317   13.2659 H   0  0  0  0  0  0  0  0  0  0  0  0
  -44.3504   -3.7647   17.1387 H   0  0  0  0  0  0  0  0  0  0  0  0
  -50.4547   -0.7200   13.2877 H   0  0  0  0  0  0  0  0  0  0  0  0
  -44.4077   -1.3726   15.9560 H   0  0  0  0  0  0  0  0  0  0  0  0
  -51.2506   -4.0492   16.2119 H   0  0  0  0  0  0  0  0  0  0  0  0
  -52.3685   -1.3270   13.3250 H   0  0  0  0  0  0  0  0  0  0  0  0
  -53.4552   -4.9071   16.2560 H   0  0  0  0  0  0  0  0  0  0  0  0
  -54.5723   -2.1898   13.3750 H   0  0  0  0  0  0  0  0  0  0  0  0
  -55.1227   -3.9797   14.8373 H   0  0  0  0  0  0  0  0  0  0  0  0
  -47.9749   -5.1070   15.8374 H   0  0  0  0  0  0  0  0  0  0  0  0
  -47.5900   -5.9187   17.2035 H   0  0  0  0  0  0  0  0  0  0  0  0
  -49.0919   -5.3195   17.0133 H   0  0  0  0  0  0  0  0  0  0  0  0
  1  7  1  0
  1  8  1  0
  2  9  1  0
  2 21  1  0
  3 11  1  0
  4 14  1  0
  5 10  2  0
  6  7  2  0
  6 10  1  0
  6 11  1  0
  7  9  1  0
  8 12  2  0
  8 13  1  0
  9 14  2  0
 10 12  1  0
 11 15  2  0
 13 16  2  0
 13 17  1  0
 14 15  1  0
 16 18  1  0
 17 19  2  0
 18 20  2  0
 19 20  1  0
  3 22  1  0
  4 23  1  0
 12 24  1  0
 15 25  1  0
 16 26  1  0
 17 27  1  0
 18 28  1  0
 19 29  1  0
 20 30  1  0
 21 31  1  0
 21 32  1  0
 21 33  1  0
M  END
>  <LF dG>
-5.836

>  <LF VSscore>
-7.285

>  <LF Rank Score>
-8.769

>  <LF LE>
-0.278

>  <LF Structure Name>
C:\Users\Odara\AppData\Local\Temp\LeadFinder_14780_1\Ligand_1.sdf

>  <LF SDF id>
0

>  <LF Pose rank>
0

>  <LF version>
2001 1, 19 January 2019

>  <PUBCHEM_COMPOUND_CID>
5281703

>  <PUBCHEM_COMPOUND_CANONICALIZED>
1

>  <PUBCHEM_CACTVS_COMPLEXITY>
426

>  <PUBCHEM_CACTVS_HBOND_ACCEPTOR>
5

>  <PUBCHEM_CACTVS_HBOND_DONOR>
2

>  <PUBCHEM_CACTVS_ROTATABLE_BOND>
2

>  <PUBCHEM_CACTVS_SUBSKEYS>
AAADccB4OAAAAAAAAAAAAAAAAAAAAAAAAAAwYIAAAAAAAACBQAAAGgAACAAADASAmAIyBoAABgCIAqBSAAACCAAkIAAIiAEGiMgNJzaGNRqCeWOl4BULuQfK7LzOIQABCAAIQABCAAIQABCAAAAAAAAAAA==

>  <PUBCHEM_IUPAC_OPENEYE_NAME>
5,7-dihydroxy-8-methoxy-2-phenyl-chromen-4-one

>  <PUBCHEM_IUPAC_CAS_NAME>
5,7-dihydroxy-8-methoxy-2-phenyl-1-benzopyran-4-one

>  <PUBCHEM_IUPAC_NAME_MARKUP>
5,7-dihydroxy-8-methoxy-2-phenylchromen-4-one

>  <PUBCHEM_IUPAC_NAME>
5,7-dihydroxy-8-methoxy-2-phenylchromen-4-one

>  <PUBCHEM_IUPAC_SYSTEMATIC_NAME>
8-methoxy-5,7-bis(oxidanyl)-2-phenyl-chromen-4-one

>  <PUBCHEM_IUPAC_TRADITIONAL_NAME>
5,7-dihydroxy-8-methoxy-2-phenyl-chromone

>  <PUBCHEM_IUPAC_INCHI>
InChI=1S/C16H12O5/c1-20-15-12(19)7-10(17)14-11(18)8-13(21-16(14)15)9-5-3-2-4-6-9/h2-8,17,19H,1H3

>  <PUBCHEM_IUPAC_INCHIKEY>
XLTFNNCXVBYBSX-UHFFFAOYSA-N

>  <PUBCHEM_XLOGP3_AA>
3

>  <PUBCHEM_EXACT_MASS>
284.068473

>  <PUBCHEM_MOLECULAR_FORMULA>
C16H12O5

>  <PUBCHEM_MOLECULAR_WEIGHT>
284.26

>  <PUBCHEM_OPENEYE_CAN_SMILES>
COC1=C(C=C(C2=C1OC(=CC2=O)C3=CC=CC=C3)O)O

>  <PUBCHEM_OPENEYE_ISO_SMILES>
COC1=C(C=C(C2=C1OC(=CC2=O)C3=CC=CC=C3)O)O

>  <PUBCHEM_CACTVS_TPSA>
76

>  <PUBCHEM_MONOISOTOPIC_WEIGHT>
284.068473

>  <PUBCHEM_TOTAL_CHARGE>
0

>  <PUBCHEM_HEAVY_ATOM_COUNT>
21

>  <PUBCHEM_ATOM_DEF_STEREO_COUNT>
0

>  <PUBCHEM_ATOM_UDEF_STEREO_COUNT>
0

>  <PUBCHEM_BOND_DEF_STEREO_COUNT>
0

>  <PUBCHEM_BOND_UDEF_STEREO_COUNT>
0

>  <PUBCHEM_ISOTOPIC_ATOM_COUNT>
0

>  <PUBCHEM_COMPONENT_COUNT>
1

>  <PUBCHEM_CACTVS_TAUTO_COUNT>
-1

>  <PUBCHEM_COORDINATE_TYPE>
1
5
255

>  <PUBCHEM_BONDANNOTATIONS>
1  7  8
1  8  8
10  12  8
11  15  8
13  16  8
13  17  8
14  15  8
16  18  8
17  19  8
18  20  8
19  20  8
6  10  8
6  11  8
6  7  8
7  9  8
8  12  8
9  14  8

>  <Favorite_cresset>
false

>  <MW_cresset>
284.3

>  <#Atoms_cresset>
21

>  <SlogP_cresset>
2.6

>  <TPSA_cresset>
76

>  <Flexibility_cresset>
1.7

>  <#RB_cresset>
4

>  <Rof5_cresset>
0

>  <Filename_cresset>
drag.11_938.sdf

>  <Confs_cresset>
0

>  <Poses_cresset>
0

$$$$
Site3m_Wogonin_D
  xed2sdf_05210316543D
 
 33 35  0  0  0  0  0  0  0  0999 V2000
  -47.4005   -4.4136   17.1693 O   0  0  0  0  0  0  0  0  0  0  0  0
  -47.3691   -6.4101   18.8913 O   0  0  0  0  0  0  0  0  0  0  0  0
  -51.7273   -5.8926   15.6006 O   0  0  0  0  0  0  0  0  0  0  0  0
  -49.5235   -8.1928   19.0733 O   0  0  0  0  0  0  0  0  0  0  0  0
  -50.4694   -3.7208   14.6325 O   0  0  0  0  0  0  0  0  0  0  0  0
  -49.5775   -5.0928   16.3345 C   0  0  0  0  0  0  0  0  0  0  0  0
  -48.4768   -5.2494   17.1823 C   0  0  0  0  0  0  0  0  0  0  0  0
  -47.3964   -3.3637   16.2859 C   0  0  0  0  0  0  0  0  0  0  0  0
  -48.4492   -6.2968   18.0899 C   0  0  0  0  0  0  0  0  0  0  0  0
  -49.5520   -3.9716   15.4131 C   0  0  0  0  0  0  0  0  0  0  0  0
  -50.6432   -6.0024   16.4131 C   0  0  0  0  0  0  0  0  0  0  0  0
  -48.4202   -3.1181   15.4185 C   0  0  0  0  0  0  0  0  0  0  0  0
  -46.1987   -2.4845   16.3177 C   0  0  0  0  0  0  0  0  0  0  0  0
  -49.5166   -7.1766   18.1697 C   0  0  0  0  0  0  0  0  0  0  0  0
  -50.6041   -7.0232   17.3252 C   0  0  0  0  0  0  0  0  0  0  0  0
  -46.1267   -1.4260   15.4242 C   0  0  0  0  0  0  0  0  0  0  0  0
  -45.1435   -2.6724   17.2003 C   0  0  0  0  0  0  0  0  0  0  0  0
  -45.0422   -0.5835   15.4119 C   0  0  0  0  0  0  0  0  0  0  0  0
  -44.0588   -1.8296   17.1875 C   0  0  0  0  0  0  0  0  0  0  0  0
  -44.0052   -0.7836   16.2945 C   0  0  0  0  0  0  0  0  0  0  0  0
  -46.4857   -7.5340   18.6901 C   0  0  0  0  0  0  0  0  0  0  0  0
  -51.9441   -6.7594   15.1437 H   0  0  0  0  0  0  0  0  0  0  0  0
  -49.1434   -9.0382   18.6856 H   0  0  0  0  0  0  0  0  0  0  0  0
  -48.3727   -2.3412   14.7908 H   0  0  0  0  0  0  0  0  0  0  0  0
  -51.3688   -7.6649   17.3823 H   0  0  0  0  0  0  0  0  0  0  0  0
  -46.8759   -1.2742   14.7795 H   0  0  0  0  0  0  0  0  0  0  0  0
  -45.1735   -3.4297   17.8526 H   0  0  0  0  0  0  0  0  0  0  0  0
  -45.0060    0.1753   14.7617 H   0  0  0  0  0  0  0  0  0  0  0  0
  -43.3058   -1.9766   17.8290 H   0  0  0  0  0  0  0  0  0  0  0  0
  -43.2149   -0.1708   16.2867 H   0  0  0  0  0  0  0  0  0  0  0  0
  -46.8348   -8.0918   17.9373 H   0  0  0  0  0  0  0  0  0  0  0  0
  -45.5673   -7.2062   18.4687 H   0  0  0  0  0  0  0  0  0  0  0  0
  -46.4432   -8.0823   19.5252 H   0  0  0  0  0  0  0  0  0  0  0  0
  1  7  1  0
  1  8  1  0
  2  9  1  0
  2 21  1  0
  3 11  1  0
  4 14  1  0
  5 10  2  0
  6  7  2  0
  6 10  1  0
  6 11  1  0
  7  9  1  0
  8 12  2  0
  8 13  1  0
  9 14  2  0
 10 12  1  0
 11 15  2  0
 13 16  2  0
 13 17  1  0
 14 15  1  0
 16 18  1  0
 17 19  2  0
 18 20  2  0
 19 20  1  0
  3 22  1  0
  4 23  1  0
 12 24  1  0
 15 25  1  0
 16 26  1  0
 17 27  1  0
 18 28  1  0
 19 29  1  0
 20 30  1  0
 21 31  1  0
 21 32  1  0
 21 33  1  0
M  END
>  <LF dG>
-5.894

>  <LF VSscore>
-6.712

>  <LF Rank Score>
-9.251

>  <LF LE>
-0.281

>  <LF Structure Name>
C:\Users\Odara\AppData\Local\Temp\LeadFinder_8576_1\Ligand_1.sdf

>  <LF SDF id>
0

>  <LF Pose rank>
0

>  <LF version>
2001 1, 19 January 2019

>  <PUBCHEM_COMPOUND_CID>
5281703

>  <PUBCHEM_COMPOUND_CANONICALIZED>
1

>  <PUBCHEM_CACTVS_COMPLEXITY>
426

>  <PUBCHEM_CACTVS_HBOND_ACCEPTOR>
5

>  <PUBCHEM_CACTVS_HBOND_DONOR>
2

>  <PUBCHEM_CACTVS_ROTATABLE_BOND>
2

>  <PUBCHEM_CACTVS_SUBSKEYS>
AAADccB4OAAAAAAAAAAAAAAAAAAAAAAAAAAwYIAAAAAAAACBQAAAGgAACAAADASAmAIyBoAABgCIAqBSAAACCAAkIAAIiAEGiMgNJzaGNRqCeWOl4BULuQfK7LzOIQABCAAIQABCAAIQABCAAAAAAAAAAA==

>  <PUBCHEM_IUPAC_OPENEYE_NAME>
5,7-dihydroxy-8-methoxy-2-phenyl-chromen-4-one

>  <PUBCHEM_IUPAC_CAS_NAME>
5,7-dihydroxy-8-methoxy-2-phenyl-1-benzopyran-4-one

>  <PUBCHEM_IUPAC_NAME_MARKUP>
5,7-dihydroxy-8-methoxy-2-phenylchromen-4-one

>  <PUBCHEM_IUPAC_NAME>
5,7-dihydroxy-8-methoxy-2-phenylchromen-4-one

>  <PUBCHEM_IUPAC_SYSTEMATIC_NAME>
8-methoxy-5,7-bis(oxidanyl)-2-phenyl-chromen-4-one

>  <PUBCHEM_IUPAC_TRADITIONAL_NAME>
5,7-dihydroxy-8-methoxy-2-phenyl-chromone

>  <PUBCHEM_IUPAC_INCHI>
InChI=1S/C16H12O5/c1-20-15-12(19)7-10(17)14-11(18)8-13(21-16(14)15)9-5-3-2-4-6-9/h2-8,17,19H,1H3

>  <PUBCHEM_IUPAC_INCHIKEY>
XLTFNNCXVBYBSX-UHFFFAOYSA-N

>  <PUBCHEM_XLOGP3_AA>
3

>  <PUBCHEM_EXACT_MASS>
284.068473

>  <PUBCHEM_MOLECULAR_FORMULA>
C16H12O5

>  <PUBCHEM_MOLECULAR_WEIGHT>
284.26

>  <PUBCHEM_OPENEYE_CAN_SMILES>
COC1=C(C=C(C2=C1OC(=CC2=O)C3=CC=CC=C3)O)O

>  <PUBCHEM_OPENEYE_ISO_SMILES>
COC1=C(C=C(C2=C1OC(=CC2=O)C3=CC=CC=C3)O)O

>  <PUBCHEM_CACTVS_TPSA>
76

>  <PUBCHEM_MONOISOTOPIC_WEIGHT>
284.068473

>  <PUBCHEM_TOTAL_CHARGE>
0

>  <PUBCHEM_HEAVY_ATOM_COUNT>
21

>  <PUBCHEM_ATOM_DEF_STEREO_COUNT>
0

>  <PUBCHEM_ATOM_UDEF_STEREO_COUNT>
0

>  <PUBCHEM_BOND_DEF_STEREO_COUNT>
0

>  <PUBCHEM_BOND_UDEF_STEREO_COUNT>
0

>  <PUBCHEM_ISOTOPIC_ATOM_COUNT>
0

>  <PUBCHEM_COMPONENT_COUNT>
1

>  <PUBCHEM_CACTVS_TAUTO_COUNT>
-1

>  <PUBCHEM_COORDINATE_TYPE>
1
5
255

>  <PUBCHEM_BONDANNOTATIONS>
1  7  8
1  8  8
10  12  8
11  15  8
13  16  8
13  17  8
14  15  8
16  18  8
17  19  8
18  20  8
19  20  8
6  10  8
6  11  8
6  7  8
7  9  8
8  12  8
9  14  8

>  <Favorite_cresset>
false

>  <MW_cresset>
284.3

>  <#Atoms_cresset>
21

>  <SlogP_cresset>
2.6

>  <TPSA_cresset>
76

>  <Flexibility_cresset>
1.7

>  <#RB_cresset>
4

>  <Rof5_cresset>
0

>  <Filename_cresset>
drag.14_882.sdf

>  <Confs_cresset>
0

>  <Poses_cresset>
0

$$$$
W_Site3m_Wogonoside_D
  xed2sdf_05210316543D
 
 52 55  0  0  1  0  0  0  0  0999 V2000
  -45.7787   -0.4225   17.9044 O   0  0  0  0  0  0  0  0  0  0  0  0
  -45.6447   -2.5454   16.6986 O   0  0  0  0  0  0  0  0  0  0  0  0
  -41.7435   -0.7719   18.9882 O   0  0  0  0  0  0  0  0  0  0  0  0
  -43.0961   -2.9731   17.7347 O   0  0  0  0  0  0  0  0  0  0  0  0
  -43.4184    1.1443   20.3161 O   0  0  0  0  0  0  0  0  0  0  0  0
  -47.0419    1.7533   18.2322 O   0  5  0  0  0  0  0  0  0  0  0  0
  -45.8025    2.4597   20.0125 O   0  0  0  0  0  0  0  0  0  0  0  0
  -50.1566   -3.0264   15.4680 O   0  0  0  0  0  0  0  0  0  0  0  0
  -47.9946   -3.7951   16.9166 O   0  0  0  0  0  0  0  0  0  0  0  0
  -47.4533    0.3596   13.3922 O   0  0  0  0  0  0  0  0  0  0  0  0
  -49.9143   -0.0232   12.7658 O   0  0  0  0  0  0  0  0  0  0  0  0
  -43.1716   -0.9063   19.0311 C   0  0  0  0  0  0  0  0  0  0  0  0
  -43.6728   -1.6596   17.7859 C   0  0  0  0  0  0  0  0  0  0  0  0
  -43.8374    0.4796   19.1147 C   0  0  0  0  0  0  0  0  0  0  0  0
  -45.2112   -1.7504   17.8269 C   0  0  0  0  0  0  0  0  0  0  0  0
  -45.3709    0.2956   19.0890 C   0  0  0  0  0  0  0  0  0  0  0  0
  -46.1282    1.6035   19.1165 C   0  0  0  0  0  0  0  0  0  0  0  0
  -46.6617   -2.1229   15.9348 C   0  0  0  0  0  0  0  0  0  0  0  0
  -47.8785   -2.7752   16.0419 C   0  0  0  0  0  0  0  0  0  0  0  0
  -46.5344   -1.0658   15.0391 C   0  0  0  0  0  0  0  0  0  0  0  0
  -48.9742   -2.3734   15.2873 C   0  0  0  0  0  0  0  0  0  0  0  0
  -48.8261   -1.3185   14.3875 C   0  0  0  0  0  0  0  0  0  0  0  0
  -47.5943   -0.6685   14.2684 C   0  0  0  0  0  0  0  0  0  0  0  0
  -49.9767   -0.9249   13.6017 C   0  0  0  0  0  0  0  0  0  0  0  0
  -51.2495   -2.6135   14.7454 C   0  0  0  0  0  0  0  0  0  0  0  0
  -51.1992   -1.6071   13.8245 C   0  0  0  0  0  0  0  0  0  0  0  0
  -52.5230   -3.3278   15.0223 C   0  0  0  0  0  0  0  0  0  0  0  0
  -48.7570   -3.5579   18.1179 C   0  0  0  0  0  0  0  0  0  0  0  0
  -52.5178   -4.3522   15.9570 C   0  0  0  0  0  0  0  0  0  0  0  0
  -53.7218   -3.0168   14.3945 C   0  0  0  0  0  0  0  0  0  0  0  0
  -53.6672   -5.0413   16.2579 C   0  0  0  0  0  0  0  0  0  0  0  0
  -54.8714   -3.7066   14.6958 C   0  0  0  0  0  0  0  0  0  0  0  0
  -54.8477   -4.7193   15.6276 C   0  0  0  0  0  0  0  0  0  0  0  0
  -43.4181   -1.4303   19.8462 H   0  0  0  0  0  0  0  0  0  0  0  0
  -43.3947   -1.1620   16.9642 H   0  0  0  0  0  0  0  0  0  0  0  0
  -43.5645    1.0447   18.3361 H   0  0  0  0  0  0  0  0  0  0  0  0
  -45.5443   -2.2159   18.6469 H   0  0  0  0  0  0  0  0  0  0  0  0
  -45.5918   -0.2185   19.9179 H   0  0  0  0  0  0  0  0  0  0  0  0
  -41.3222   -1.5153   18.4573 H   0  0  0  0  0  0  0  0  0  0  0  0
  -43.2121   -3.3894   16.8263 H   0  0  0  0  0  0  0  0  0  0  0  0
  -43.2413    2.1210   20.1561 H   0  0  0  0  0  0  0  0  0  0  0  0
  -46.9202    0.0844   12.5844 H   0  0  0  0  0  0  0  0  0  0  0  0
  -45.6581   -0.5907   14.9570 H   0  0  0  0  0  0  0  0  0  0  0  0
  -52.0187   -1.3530   13.3108 H   0  0  0  0  0  0  0  0  0  0  0  0
  -49.0972   -2.6175   18.1071 H   0  0  0  0  0  0  0  0  0  0  0  0
  -49.5272   -4.1943   18.1601 H   0  0  0  0  0  0  0  0  0  0  0  0
  -48.1751   -3.6973   18.9189 H   0  0  0  0  0  0  0  0  0  0  0  0
  -51.6644   -4.5927   16.4191 H   0  0  0  0  0  0  0  0  0  0  0  0
  -53.7489   -2.2829   13.7159 H   0  0  0  0  0  0  0  0  0  0  0  0
  -53.6463   -5.7771   16.9348 H   0  0  0  0  0  0  0  0  0  0  0  0
  -55.7280   -3.4722   14.2363 H   0  0  0  0  0  0  0  0  0  0  0  0
  -55.6855   -5.2197   15.8459 H   0  0  0  0  0  0  0  0  0  0  0  0
  1 15  1  0
  1 16  1  0
  2 18  1  0
  6 17  1  0
  7 17  2  0
  8 21  1  0
  8 25  1  0
  9 19  1  0
  9 28  1  0
 10 23  1  0
 11 24  2  0
 12  3  1  0
 12 13  1  0
 12 14  1  0
 13  4  1  0
 13 15  1  0
 14  5  1  0
 14 16  1  0
 15  2  1  0
 16 17  1  0
 18 19  2  0
 18 20  1  0
 19 21  1  0
 20 23  2  0
 21 22  2  0
 22 23  1  0
 22 24  1  0
 24 26  1  0
 25 26  2  0
 25 27  1  0
 27 29  2  0
 27 30  1  0
 29 31  1  0
 30 32  2  0
 31 33  2  0
 32 33  1  0
  3 39  1  0
  4 40  1  0
  5 41  1  0
 10 42  1  0
 12 34  1  0
 13 35  1  0
 14 36  1  0
 15 37  1  0
 16 38  1  0
 20 43  1  0
 26 44  1  0
 28 45  1  0
 28 46  1  0
 28 47  1  0
 29 48  1  0
 30 49  1  0
 31 50  1  0
 32 51  1  0
 33 52  1  0
M  CHG  1   6  -1
M  END
>  <LF dG>
-6.032

>  <LF VSscore>
-9.822

>  <LF Rank Score>
-8.759

>  <LF LE>
-0.183

>  <LF Structure Name>
C:\Users\Odara\AppData\Local\Temp\LeadFinder_14660_1\Ligand_1.sdf

>  <LF SDF id>
0

>  <LF Pose rank>
0

>  <LF version>
2001 1, 19 January 2019

>  <PUBCHEM_COMPOUND_CID>
3084961

>  <PUBCHEM_COMPOUND_CANONICALIZED>
1

>  <PUBCHEM_CACTVS_COMPLEXITY>
763

>  <PUBCHEM_CACTVS_HBOND_ACCEPTOR>
11

>  <PUBCHEM_CACTVS_HBOND_DONOR>
5

>  <PUBCHEM_CACTVS_ROTATABLE_BOND>
5

>  <PUBCHEM_CACTVS_SUBSKEYS>
AAADceB4PAAAAAAAAAAAAAAAAAAAAAAAAAA0YIEAAAAAAACBQAAAGgAACAAADBSwmAMyDoAABgCIAqDSCAICCAAkIAAIiAFGiMgdNzaGNR6ieWKl4BUPuQfK7LzOIQABCAAIQABCAAIQABCAAAAAAAAAAA==

>  <PUBCHEM_IUPAC_OPENEYE_NAME>
(2S,3S,4S,5R,6S)-3,4,5-trihydroxy-6-(5-hydroxy-8-methoxy-4-oxo-2-phenyl-chromen-7-yl)oxy-tetrahydropyran-2-carboxylic acid

>  <PUBCHEM_IUPAC_CAS_NAME>
(2S,3S,4S,5R,6S)-3,4,5-trihydroxy-6-[(5-hydroxy-8-methoxy-4-oxo-2-phenyl-1-benzopyran-7-yl)oxy]-2-oxanecarboxylic acid

>  <PUBCHEM_IUPAC_NAME_MARKUP>
(2<I>S</I>,3<I>S</I>,4<I>S</I>,5<I>R</I>,6<I>S</I>)-3,4,5-trihydroxy-6-(5-hydroxy-8-methoxy-4-oxo-2-phenylchromen-7-yl)oxyoxane-2-carboxylic acid

>  <PUBCHEM_IUPAC_NAME>
(2S,3S,4S,5R,6S)-3,4,5-trihydroxy-6-(5-hydroxy-8-methoxy-4-oxo-2-phenylchromen-7-yl)oxyoxane-2-carboxylic acid

>  <PUBCHEM_IUPAC_SYSTEMATIC_NAME>
(2S,3S,4S,5R,6S)-6-(8-methoxy-5-oxidanyl-4-oxidanylidene-2-phenyl-chromen-7-yl)oxy-3,4,5-tris(oxidanyl)oxane-2-carboxylic acid

>  <PUBCHEM_IUPAC_TRADITIONAL_NAME>
(2S,3S,4S,5R,6S)-3,4,5-trihydroxy-6-(5-hydroxy-4-keto-8-methoxy-2-phenyl-chromen-7-yl)oxy-tetrahydropyran-2-carboxylic acid

>  <PUBCHEM_IUPAC_INCHI>
InChI=1S/C22H20O11/c1-30-18-13(32-22-17(27)15(25)16(26)20(33-22)21(28)29)8-11(24)14-10(23)7-12(31-19(14)18)9-5-3-2-4-6-9/h2-8,15-17,20,22,24-27H,1H3,(H,28,29)/t15-,16-,17+,20-,22+/m0/s1

>  <PUBCHEM_IUPAC_INCHIKEY>
LNOHXHDWGCMVCO-NTKSAMNMSA-N

>  <PUBCHEM_XLOGP3_AA>
1.4

>  <PUBCHEM_EXACT_MASS>
460.100561

>  <PUBCHEM_MOLECULAR_FORMULA>
C22H20O11

>  <PUBCHEM_MOLECULAR_WEIGHT>
460.4

>  <PUBCHEM_OPENEYE_CAN_SMILES>
COC1=C(C=C(C2=C1OC(=CC2=O)C3=CC=CC=C3)O)OC4C(C(C(C(O4)C(=O)O)O)O)O

>  <PUBCHEM_OPENEYE_ISO_SMILES>
COC1=C(C=C(C2=C1OC(=CC2=O)C3=CC=CC=C3)O)O[C@H]4[C@@H]([C@H]([C@@H]([C@H](O4)C(=O)O)O)O)O

>  <PUBCHEM_CACTVS_TPSA>
172

>  <PUBCHEM_MONOISOTOPIC_WEIGHT>
460.100561

>  <PUBCHEM_TOTAL_CHARGE>
0

>  <PUBCHEM_HEAVY_ATOM_COUNT>
33

>  <PUBCHEM_ATOM_DEF_STEREO_COUNT>
5

>  <PUBCHEM_ATOM_UDEF_STEREO_COUNT>
0

>  <PUBCHEM_BOND_DEF_STEREO_COUNT>
0

>  <PUBCHEM_BOND_UDEF_STEREO_COUNT>
0

>  <PUBCHEM_ISOTOPIC_ATOM_COUNT>
0

>  <PUBCHEM_COMPONENT_COUNT>
1

>  <PUBCHEM_CACTVS_TAUTO_COUNT>
-1

>  <PUBCHEM_COORDINATE_TYPE>
1
5
255

>  <PUBCHEM_BONDANNOTATIONS>
16  17  5
18  19  8
18  20  8
19  21  8
15  2  5
20  23  8
21  22  8
22  23  8
22  24  8
24  26  8
25  26  8
27  29  8
27  30  8
29  31  8
12  3  5
30  32  8
31  33  8
32  33  8
13  4  6
14  5  6
8  21  8
8  25  8

>  <Favorite_cresset>
false

>  <MW_cresset>
459.4

>  <#Atoms_cresset>
33

>  <SlogP_cresset>
1.4

>  <TPSA_cresset>
175

>  <Flexibility_cresset>
7.6

>  <#RB_cresset>
9

>  <Rof5_cresset>
1

>  <Filename_cresset>
drag.55_14.sdf

>  <Confs_cresset>
0

>  <Poses_cresset>
0

$$$$
Site3m_Wogonoside_D
  xed2sdf_05210316543D
 
 52 55  0  0  1  0  0  0  0  0999 V2000
  -45.6596   -0.5340   18.5661 O   0  0  0  0  0  0  0  0  0  0  0  0
  -45.7526   -2.7664   17.5522 O   0  0  0  0  0  0  0  0  0  0  0  0
  -41.4774   -0.7644   18.7028 O   0  0  0  0  0  0  0  0  0  0  0  0
  -43.0273   -3.0791   18.0040 O   0  0  0  0  0  0  0  0  0  0  0  0
  -42.8571    1.2772   20.1939 O   0  0  0  0  0  0  0  0  0  0  0  0
  -45.5076    2.3066   20.7083 O   0  5  0  0  0  0  0  0  0  0  0  0
  -46.5050    1.9082   18.6937 O   0  0  0  0  0  0  0  0  0  0  0  0
  -50.1444   -2.9122   15.8765 O   0  0  0  0  0  0  0  0  0  0  0  0
  -48.2399   -3.7489   17.6124 O   0  0  0  0  0  0  0  0  0  0  0  0
  -46.9271    0.0673   13.9139 O   0  0  0  0  0  0  0  0  0  0  0  0
  -49.3392   -0.1220   13.0565 O   0  0  0  0  0  0  0  0  0  0  0  0
  -42.8528   -0.8990   19.0896 C   0  0  0  0  0  0  0  0  0  0  0  0
  -43.6103   -1.7693   18.0699 C   0  0  0  0  0  0  0  0  0  0  0  0
  -43.5202    0.4846   19.1982 C   0  0  0  0  0  0  0  0  0  0  0  0
  -45.0961   -1.8630   18.4720 C   0  0  0  0  0  0  0  0  0  0  0  0
  -45.0046    0.2797   19.5619 C   0  0  0  0  0  0  0  0  0  0  0  0
  -45.7237    1.6019   19.6606 C   0  0  0  0  0  0  0  0  0  0  0  0
  -46.6459   -2.2928   16.6723 C   0  0  0  0  0  0  0  0  0  0  0  0
  -47.9333   -2.8024   16.7024 C   0  0  0  0  0  0  0  0  0  0  0  0
  -46.3242   -1.3201   15.7308 C   0  0  0  0  0  0  0  0  0  0  0  0
  -48.8979   -2.3659   15.8021 C   0  0  0  0  0  0  0  0  0  0  0  0
  -48.5546   -1.3977   14.8594 C   0  0  0  0  0  0  0  0  0  0  0  0
  -47.2579   -0.8770   14.8324 C   0  0  0  0  0  0  0  0  0  0  0  0
  -49.5725   -0.9609   13.9270 C   0  0  0  0  0  0  0  0  0  0  0  0
  -51.1079   -2.4646   15.0055 C   0  0  0  0  0  0  0  0  0  0  0  0
  -50.8673   -1.5263   14.0435 C   0  0  0  0  0  0  0  0  0  0  0  0
  -52.4605   -3.0596   15.1644 C   0  0  0  0  0  0  0  0  0  0  0  0
  -48.1305   -5.1256   17.1974 C   0  0  0  0  0  0  0  0  0  0  0  0
  -52.6556   -4.0168   16.1491 C   0  0  0  0  0  0  0  0  0  0  0  0
  -53.5432   -2.7013   14.3728 C   0  0  0  0  0  0  0  0  0  0  0  0
  -53.8873   -4.5935   16.3410 C   0  0  0  0  0  0  0  0  0  0  0  0
  -54.7752   -3.2789   14.5648 C   0  0  0  0  0  0  0  0  0  0  0  0
  -54.9510   -4.2251   15.5489 C   0  0  0  0  0  0  0  0  0  0  0  0
  -42.8873   -1.3429   19.9848 H   0  0  0  0  0  0  0  0  0  0  0  0
  -43.5425   -1.3486   17.1651 H   0  0  0  0  0  0  0  0  0  0  0  0
  -43.4521    0.9702   18.3266 H   0  0  0  0  0  0  0  0  0  0  0  0
  -45.2279   -2.2520   19.3838 H   0  0  0  0  0  0  0  0  0  0  0  0
  -45.0377   -0.1801   20.4494 H   0  0  0  0  0  0  0  0  0  0  0  0
  -41.1166   -1.6251   18.3275 H   0  0  0  0  0  0  0  0  0  0  0  0
  -43.0583   -3.4476   17.0684 H   0  0  0  0  0  0  0  0  0  0  0  0
  -42.9689    2.2607   20.0142 H   0  0  0  0  0  0  0  0  0  0  0  0
  -46.5553   -0.3478   13.0761 H   0  0  0  0  0  0  0  0  0  0  0  0
  -45.3993   -0.9399   15.7099 H   0  0  0  0  0  0  0  0  0  0  0  0
  -51.5992   -1.2398   13.4253 H   0  0  0  0  0  0  0  0  0  0  0  0
  -47.8270   -5.1554   16.2450 H   0  0  0  0  0  0  0  0  0  0  0  0
  -47.4689   -5.6017   17.7766 H   0  0  0  0  0  0  0  0  0  0  0  0
  -49.0201   -5.5746   17.2825 H   0  0  0  0  0  0  0  0  0  0  0  0
  -51.8880   -4.2910   16.7281 H   0  0  0  0  0  0  0  0  0  0  0  0
  -53.4254   -2.0153   13.6549 H   0  0  0  0  0  0  0  0  0  0  0  0
  -54.0113   -5.2813   17.0562 H   0  0  0  0  0  0  0  0  0  0  0  0
  -55.5464   -3.0112   13.9875 H   0  0  0  0  0  0  0  0  0  0  0  0
  -55.8484   -4.6437   15.6878 H   0  0  0  0  0  0  0  0  0  0  0  0
  1 15  1  0
  1 16  1  0
  2 18  1  0
  6 17  1  0
  7 17  2  0
  8 21  1  0
  8 25  1  0
  9 19  1  0
  9 28  1  0
 10 23  1  0
 11 24  2  0
 12  3  1  0
 12 13  1  0
 12 14  1  0
 13  4  1  0
 13 15  1  0
 14  5  1  0
 14 16  1  0
 15  2  1  0
 16 17  1  0
 18 19  2  0
 18 20  1  0
 19 21  1  0
 20 23  2  0
 21 22  2  0
 22 23  1  0
 22 24  1  0
 24 26  1  0
 25 26  2  0
 25 27  1  0
 27 29  2  0
 27 30  1  0
 29 31  1  0
 30 32  2  0
 31 33  2  0
 32 33  1  0
  3 39  1  0
  4 40  1  0
  5 41  1  0
 10 42  1  0
 12 34  1  0
 13 35  1  0
 14 36  1  0
 15 37  1  0
 16 38  1  0
 20 43  1  0
 26 44  1  0
 28 45  1  0
 28 46  1  0
 28 47  1  0
 29 48  1  0
 30 49  1  0
 31 50  1  0
 32 51  1  0
 33 52  1  0
M  CHG  1   6  -1
M  END
>  <LF dG>
-6.077

>  <LF VSscore>
-9.765

>  <LF Rank Score>
-8.661

>  <LF LE>
-0.184

>  <LF Structure Name>
C:\Users\Odara\AppData\Local\Temp\LeadFinder_11432_1\Ligand_1.sdf

>  <LF SDF id>
0

>  <LF Pose rank>
0

>  <LF version>
2001 1, 19 January 2019

>  <PUBCHEM_COMPOUND_CID>
3084961

>  <PUBCHEM_COMPOUND_CANONICALIZED>
1

>  <PUBCHEM_CACTVS_COMPLEXITY>
763

>  <PUBCHEM_CACTVS_HBOND_ACCEPTOR>
11

>  <PUBCHEM_CACTVS_HBOND_DONOR>
5

>  <PUBCHEM_CACTVS_ROTATABLE_BOND>
5

>  <PUBCHEM_CACTVS_SUBSKEYS>
AAADceB4PAAAAAAAAAAAAAAAAAAAAAAAAAA0YIEAAAAAAACBQAAAGgAACAAADBSwmAMyDoAABgCIAqDSCAICCAAkIAAIiAFGiMgdNzaGNR6ieWKl4BUPuQfK7LzOIQABCAAIQABCAAIQABCAAAAAAAAAAA==

>  <PUBCHEM_IUPAC_OPENEYE_NAME>
(2S,3S,4S,5R,6S)-3,4,5-trihydroxy-6-(5-hydroxy-8-methoxy-4-oxo-2-phenyl-chromen-7-yl)oxy-tetrahydropyran-2-carboxylic acid

>  <PUBCHEM_IUPAC_CAS_NAME>
(2S,3S,4S,5R,6S)-3,4,5-trihydroxy-6-[(5-hydroxy-8-methoxy-4-oxo-2-phenyl-1-benzopyran-7-yl)oxy]-2-oxanecarboxylic acid

>  <PUBCHEM_IUPAC_NAME_MARKUP>
(2<I>S</I>,3<I>S</I>,4<I>S</I>,5<I>R</I>,6<I>S</I>)-3,4,5-trihydroxy-6-(5-hydroxy-8-methoxy-4-oxo-2-phenylchromen-7-yl)oxyoxane-2-carboxylic acid

>  <PUBCHEM_IUPAC_NAME>
(2S,3S,4S,5R,6S)-3,4,5-trihydroxy-6-(5-hydroxy-8-methoxy-4-oxo-2-phenylchromen-7-yl)oxyoxane-2-carboxylic acid

>  <PUBCHEM_IUPAC_SYSTEMATIC_NAME>
(2S,3S,4S,5R,6S)-6-(8-methoxy-5-oxidanyl-4-oxidanylidene-2-phenyl-chromen-7-yl)oxy-3,4,5-tris(oxidanyl)oxane-2-carboxylic acid

>  <PUBCHEM_IUPAC_TRADITIONAL_NAME>
(2S,3S,4S,5R,6S)-3,4,5-trihydroxy-6-(5-hydroxy-4-keto-8-methoxy-2-phenyl-chromen-7-yl)oxy-tetrahydropyran-2-carboxylic acid

>  <PUBCHEM_IUPAC_INCHI>
InChI=1S/C22H20O11/c1-30-18-13(32-22-17(27)15(25)16(26)20(33-22)21(28)29)8-11(24)14-10(23)7-12(31-19(14)18)9-5-3-2-4-6-9/h2-8,15-17,20,22,24-27H,1H3,(H,28,29)/t15-,16-,17+,20-,22+/m0/s1

>  <PUBCHEM_IUPAC_INCHIKEY>
LNOHXHDWGCMVCO-NTKSAMNMSA-N

>  <PUBCHEM_XLOGP3_AA>
1.4

>  <PUBCHEM_EXACT_MASS>
460.100561

>  <PUBCHEM_MOLECULAR_FORMULA>
C22H20O11

>  <PUBCHEM_MOLECULAR_WEIGHT>
460.4

>  <PUBCHEM_OPENEYE_CAN_SMILES>
COC1=C(C=C(C2=C1OC(=CC2=O)C3=CC=CC=C3)O)OC4C(C(C(C(O4)C(=O)O)O)O)O

>  <PUBCHEM_OPENEYE_ISO_SMILES>
COC1=C(C=C(C2=C1OC(=CC2=O)C3=CC=CC=C3)O)O[C@H]4[C@@H]([C@H]([C@@H]([C@H](O4)C(=O)O)O)O)O

>  <PUBCHEM_CACTVS_TPSA>
172

>  <PUBCHEM_MONOISOTOPIC_WEIGHT>
460.100561

>  <PUBCHEM_TOTAL_CHARGE>
0

>  <PUBCHEM_HEAVY_ATOM_COUNT>
33

>  <PUBCHEM_ATOM_DEF_STEREO_COUNT>
5

>  <PUBCHEM_ATOM_UDEF_STEREO_COUNT>
0

>  <PUBCHEM_BOND_DEF_STEREO_COUNT>
0

>  <PUBCHEM_BOND_UDEF_STEREO_COUNT>
0

>  <PUBCHEM_ISOTOPIC_ATOM_COUNT>
0

>  <PUBCHEM_COMPONENT_COUNT>
1

>  <PUBCHEM_CACTVS_TAUTO_COUNT>
-1

>  <PUBCHEM_COORDINATE_TYPE>
1
5
255

>  <PUBCHEM_BONDANNOTATIONS>
16  17  5
18  19  8
18  20  8
19  21  8
15  2  5
20  23  8
21  22  8
22  23  8
22  24  8
24  26  8
25  26  8
27  29  8
27  30  8
29  31  8
12  3  5
30  32  8
31  33  8
32  33  8
13  4  6
14  5  6
8  21  8
8  25  8

>  <Favorite_cresset>
false

>  <MW_cresset>
459.4

>  <#Atoms_cresset>
33

>  <SlogP_cresset>
1.4

>  <TPSA_cresset>
175

>  <Flexibility_cresset>
7.6

>  <#RB_cresset>
9

>  <Rof5_cresset>
1

>  <Filename_cresset>
drag.57_934.sdf

>  <Confs_cresset>
0

>  <Poses_cresset>
0

$$$$
W_Site3m_VTRRT_D
  xed2sdf_05210316543D
 
 92 97  0  0  1  0  0  0  0  0999 V2000
  -52.1988  -12.6444   17.4347 C   0  0  0  0  0  0  0  0  0  0  0  0
  -52.0691  -11.2934   17.2059 C   0  0  0  0  0  0  0  0  0  0  0  0
  -51.0818  -10.5720   17.8413 C   0  0  0  0  0  0  0  0  0  0  0  0
  -50.2239  -11.2154   18.7070 C   0  0  0  0  0  0  0  0  0  0  0  0
  -50.3514  -12.5664   18.9361 C   0  0  0  0  0  0  0  0  0  0  0  0
  -51.3392  -13.2816   18.2996 C   0  0  0  0  0  0  0  0  0  0  0  0
  -50.9357   -9.0778   17.5886 C   0  0  0  0  0  0  0  0  0  0  0  0
  -52.1286   -8.2122   18.0550 C   0  0  0  0  0  0  0  0  0  0  0  0
  -52.6403   -7.4185   16.8828 N   0  3  0  0  0  0  0  0  0  0  0  0
  -51.7200   -7.2794   19.2223 C   0  0  0  0  0  0  0  0  0  0  0  0
  -52.4440   -7.6135   20.4178 O   0  0  0  0  0  0  0  0  0  0  0  0
  -51.9651   -5.7965   18.8486 C   0  0  0  0  0  0  0  0  0  0  0  0
  -50.8346   -5.1144   18.0382 C   0  0  0  0  0  0  0  0  0  0  0  0
  -51.2611   -3.7380   17.4750 C   0  0  0  0  0  0  0  0  0  0  0  0
  -50.7047   -3.4028   16.0979 C   0  0  0  0  0  0  0  0  0  0  0  0
  -50.2475   -4.4055   15.2709 C   0  0  0  0  0  0  0  0  0  0  0  0
  -49.7485   -4.1055   14.0238 C   0  0  0  0  0  0  0  0  0  0  0  0
  -49.7035   -2.7983   13.5968 C   0  0  0  0  0  0  0  0  0  0  0  0
  -50.1583   -1.7930   14.4187 C   0  0  0  0  0  0  0  0  0  0  0  0
  -50.6571   -2.0951   15.6656 C   0  0  0  0  0  0  0  0  0  0  0  0
  -49.5724   -4.9895   18.7850 N   0  0  0  0  0  0  0  0  0  0  0  0
  -48.4793   -5.9137   18.3141 P   0  0  0  0  0  0  0  0  0  0  0  0
  -47.1632   -5.0623   17.9506 O   0  0  0  0  0  0  0  0  0  0  0  0
  -47.9698   -6.8712   19.5036 O   0  0  0  0  0  0  0  0  0  0  0  0
  -48.9202   -6.7160   17.1169 O   0  0  0  0  0  0  0  0  0  0  0  0
  -47.2569   -4.0497   16.9353 C   0  0  0  0  0  0  0  0  0  0  0  0
  -47.1816   -7.9513   19.2387 C   0  0  0  0  0  0  0  0  0  0  0  0
  -45.9847   -7.7785   18.5720 C   0  0  0  0  0  0  0  0  0  0  0  0
  -45.1828   -8.8625   18.3026 C   0  0  0  0  0  0  0  0  0  0  0  0
  -45.5704  -10.1220   18.7015 C   0  0  0  0  0  0  0  0  0  0  0  0
  -46.7613  -10.2982   19.3701 C   0  0  0  0  0  0  0  0  0  0  0  0
  -47.5671   -9.2166   19.6376 C   0  0  0  0  0  0  0  0  0  0  0  0
  -45.9520   -3.2383   16.8413 C   0  0  0  0  0  0  0  0  0  0  0  0
  -45.7817   -2.3557   17.9603 O   0  0  0  0  0  0  0  0  0  0  0  0
  -44.9566   -1.2351   17.5814 C   0  0  0  0  0  0  0  0  0  0  0  0
  -44.8532   -1.2818   16.0359 C   0  0  0  0  0  0  0  0  0  0  0  0
  -45.8900   -2.3284   15.6068 C   0  0  0  0  0  0  0  0  0  0  0  0
  -47.1519   -1.6872   15.3639 O   0  0  0  0  0  0  0  0  0  0  0  0
  -45.1097   -0.0147   15.4092 O   0  0  0  0  0  0  0  0  0  0  0  0
  -45.5550    0.0420   18.1648 C   0  0  0  0  0  0  0  0  0  0  0  0
  -43.6194   -1.4369   18.1572 C   0  0  0  0  0  0  0  0  0  0  0  0
  -42.5860   -1.5922   18.6031 N   0  0  0  0  0  0  0  0  0  0  0  0
  -46.8933    0.2407   18.2668 N   0  0  0  0  0  0  0  0  0  0  0  0
  -47.0289    1.4758   18.8167 C   0  0  0  0  0  0  0  0  0  0  0  0
  -45.8195    2.0425   19.0614 C   0  0  0  0  0  0  0  0  0  0  0  0
  -44.8725    1.1073   18.6351 C   0  0  0  0  0  0  0  0  0  0  0  0
  -47.9881   -0.5104   17.9447 N   0  0  0  0  0  0  0  0  0  0  0  0
  -49.1724    0.0039   18.1817 C   0  0  0  0  0  0  0  0  0  0  0  0
  -49.4288    1.2362   18.7263 N   0  0  0  0  0  0  0  0  0  0  0  0
  -48.3447    1.9606   19.0380 C   0  0  0  0  0  0  0  0  0  0  0  0
  -48.5554    3.2042   19.5838 N   0  0  0  0  0  0  0  0  0  0  0  0
  -52.8558   -8.8073   18.3966 H   0  0  0  0  0  0  0  0  0  0  0  0
  -50.7436   -7.4088   19.3942 H   0  0  0  0  0  0  0  0  0  0  0  0
  -50.6637   -5.7309   17.2693 H   0  0  0  0  0  0  0  0  0  0  0  0
  -45.2411   -3.9409   16.8036 H   0  0  0  0  0  0  0  0  0  0  0  0
  -43.9229   -1.5140   15.7518 H   0  0  0  0  0  0  0  0  0  0  0  0
  -45.6663   -2.8207   14.7657 H   0  0  0  0  0  0  0  0  0  0  0  0
  -52.9177  -13.1630   16.9720 H   0  0  0  0  0  0  0  0  0  0  0  0
  -52.6945  -10.8331   16.5757 H   0  0  0  0  0  0  0  0  0  0  0  0
  -49.5050  -10.6979   19.1708 H   0  0  0  0  0  0  0  0  0  0  0  0
  -49.7262  -13.0280   19.5654 H   0  0  0  0  0  0  0  0  0  0  0  0
  -51.4322  -14.2636   18.4652 H   0  0  0  0  0  0  0  0  0  0  0  0
  -50.8154   -8.9393   16.6056 H   0  0  0  0  0  0  0  0  0  0  0  0
  -50.1497   -8.7804   18.1305 H   0  0  0  0  0  0  0  0  0  0  0  0
  -52.6984   -7.9275   16.1310 H   0  0  0  0  0  0  0  0  0  0  0  0
  -52.0959   -6.7164   16.6851 H   0  0  0  0  0  0  0  0  0  0  0  0
  -52.7362   -8.5757   20.4161 H   0  0  0  0  0  0  0  0  0  0  0  0
  -52.0932   -5.2813   19.6962 H   0  0  0  0  0  0  0  0  0  0  0  0
  -52.7674   -5.7943   18.2514 H   0  0  0  0  0  0  0  0  0  0  0  0
  -50.9569   -3.0322   18.1148 H   0  0  0  0  0  0  0  0  0  0  0  0
  -52.2550   -3.7761   17.3702 H   0  0  0  0  0  0  0  0  0  0  0  0
  -50.2783   -5.3565   15.5785 H   0  0  0  0  0  0  0  0  0  0  0  0
  -49.4187   -4.8376   13.4281 H   0  0  0  0  0  0  0  0  0  0  0  0
  -49.3411   -2.5794   12.6909 H   0  0  0  0  0  0  0  0  0  0  0  0
  -50.1265   -0.8422   14.1101 H   0  0  0  0  0  0  0  0  0  0  0  0
  -50.9862   -1.3621   16.2605 H   0  0  0  0  0  0  0  0  0  0  0  0
  -49.2433   -4.0170   18.7753 H   0  0  0  0  0  0  0  0  0  0  0  0
  -48.0128   -3.4330   17.1554 H   0  0  0  0  0  0  0  0  0  0  0  0
  -47.4167   -4.4961   16.0549 H   0  0  0  0  0  0  0  0  0  0  0  0
  -45.7006   -6.8636   18.2846 H   0  0  0  0  0  0  0  0  0  0  0  0
  -44.3181   -8.7360   17.8168 H   0  0  0  0  0  0  0  0  0  0  0  0
  -44.9865  -10.9098   18.5056 H   0  0  0  0  0  0  0  0  0  0  0  0
  -47.0404  -11.2133   19.6609 H   0  0  0  0  0  0  0  0  0  0  0  0
  -48.4326   -9.3462   20.1214 H   0  0  0  0  0  0  0  0  0  0  0  0
  -47.2618   -1.4516   14.3919 H   0  0  0  0  0  0  0  0  0  0  0  0
  -45.3732   -0.1304   14.4452 H   0  0  0  0  0  0  0  0  0  0  0  0
  -45.6433    2.9412   19.4627 H   0  0  0  0  0  0  0  0  0  0  0  0
  -43.8782    1.2081   18.6718 H   0  0  0  0  0  0  0  0  0  0  0  0
  -49.9644   -0.5574   17.9419 H   0  0  0  0  0  0  0  0  0  0  0  0
  -49.3772    3.4914   19.7136 H   0  0  0  0  0  0  0  0  0  0  0  0
  -47.8735    3.7167   19.8036 H   0  0  0  0  0  0  0  0  0  0  0  0
  -53.6229   -7.0395   17.1223 H   0  0  0  0  0  0  0  0  0  0  0  0
  1  2  2  0
  2  3  1  0
  3  4  2  0
  3  7  1  0
  4  5  1  0
  5  6  2  0
  6  1  1  0
  7  8  1  0
  8  9  1  0
  8 10  1  0
 10 11  1  0
 10 12  1  0
 12 13  1  0
 13 14  1  0
 13 21  1  0
 14 15  1  0
 15 16  2  0
 16 17  1  0
 17 18  2  0
 18 19  1  0
 19 20  2  0
 20 15  1  0
 21 22  1  0
 22 23  1  0
 22 24  1  0
 22 25  2  0
 23 26  1  0
 24 27  1  0
 27 28  2  0
 28 29  1  0
 29 30  2  0
 30 31  1  0
 31 32  2  0
 32 27  1  0
 33 26  1  0
 33 34  1  0
 34 35  1  0
 35 36  1  0
 35 40  1  0
 35 41  1  0
 36 37  1  0
 36 39  1  0
 37 33  1  0
 37 38  1  0
 40 43  1  0
 41 42  3  0
 43 44  1  0
 43 47  1  0
 44 45  2  0
 45 46  1  0
 46 40  2  0
 47 48  2  0
 48 49  1  0
 49 50  2  0
 50 44  1  0
 50 51  1  0
  1 58  1  0
  2 59  1  0
  4 60  1  0
  5 61  1  0
  6 62  1  0
  7 63  1  0
  7 64  1  0
  8 52  1  0
  9 65  1  0
  9 66  1  0
  9 92  1  0
 10 53  1  0
 11 67  1  0
 12 68  1  0
 12 69  1  0
 13 54  1  0
 14 70  1  0
 14 71  1  0
 16 72  1  0
 17 73  1  0
 18 74  1  0
 19 75  1  0
 20 76  1  0
 21 77  1  0
 26 78  1  0
 26 79  1  0
 28 80  1  0
 29 81  1  0
 30 82  1  0
 31 83  1  0
 32 84  1  0
 33 55  1  0
 36 56  1  0
 37 57  1  0
 38 85  1  0
 39 86  1  0
 45 87  1  0
 46 88  1  0
 48 89  1  0
 51 90  1  0
 51 91  1  0
M  CHG  1   9   1
M  END
>  <LF dG>
-5.086

>  <LF VSscore>
-9.868

>  <LF Rank Score>
-8.276

>  <LF LE>
-0.1

>  <LF Structure Name>
C:\Users\Odara\AppData\Local\Temp\LeadFinder_1168_1\Ligand_1.sdf

>  <LF SDF id>
0

>  <LF Pose rank>
0

>  <LF version>
2001 1, 19 January 2019

>  <Favorite_cresset>
false

>  <MW_cresset>
714.7

>  <#Atoms_cresset>
51

>  <SlogP_cresset>
4

>  <TPSA_cresset>
225.1

>  <Flexibility_cresset>
17.1

>  <#RB_cresset>
18

>  <Rof5_cresset>
3

>  <Filename_cresset>
drag.28_823.sdf

>  <Confs_cresset>
0

>  <Poses_cresset>
0

$$$$
Site3m_VTRRT_D
  xed2sdf_05210316543D
 
 92 97  0  0  1  0  0  0  0  0999 V2000
  -52.5785    0.4279   16.3708 C   0  0  0  0  0  0  0  0  0  0  0  0
  -51.8002   -0.4788   15.6872 C   0  0  0  0  0  0  0  0  0  0  0  0
  -51.0520   -0.0741   14.6027 C   0  0  0  0  0  0  0  0  0  0  0  0
  -51.0942    1.2445   14.2056 C   0  0  0  0  0  0  0  0  0  0  0  0
  -51.8725    2.1522   14.8867 C   0  0  0  0  0  0  0  0  0  0  0  0
  -52.6149    1.7438   15.9708 C   0  0  0  0  0  0  0  0  0  0  0  0
  -50.1964   -1.0592   13.8187 C   0  0  0  0  0  0  0  0  0  0  0  0
  -48.6565   -0.9256   13.9277 C   0  0  0  0  0  0  0  0  0  0  0  0
  -48.1210   -0.1863   12.7319 N   0  3  0  0  0  0  0  0  0  0  0  0
  -47.9570   -2.3033   14.0021 C   0  0  0  0  0  0  0  0  0  0  0  0
  -48.8582   -3.3002   14.5113 O   0  0  0  0  0  0  0  0  0  0  0  0
  -46.6660   -2.2531   14.8448 C   0  0  0  0  0  0  0  0  0  0  0  0
  -46.7813   -1.2157   15.9833 C   0  0  0  0  0  0  0  0  0  0  0  0
  -45.5463   -0.2903   16.0182 C   0  0  0  0  0  0  0  0  0  0  0  0
  -44.5590   -0.5411   17.1481 C   0  0  0  0  0  0  0  0  0  0  0  0
  -43.7874   -1.6825   17.1761 C   0  0  0  0  0  0  0  0  0  0  0  0
  -42.9031   -1.8946   18.2097 C   0  0  0  0  0  0  0  0  0  0  0  0
  -42.7853   -0.9652   19.2176 C   0  0  0  0  0  0  0  0  0  0  0  0
  -43.5526    0.1768   19.1917 C   0  0  0  0  0  0  0  0  0  0  0  0
  -44.4371    0.3867   18.1590 C   0  0  0  0  0  0  0  0  0  0  0  0
  -46.8410   -1.9155   17.2754 N   0  0  0  0  0  0  0  0  0  0  0  0
  -48.1878   -1.8319   17.9448 P   0  0  0  0  0  0  0  0  0  0  0  0
  -49.1589   -3.0031   17.4223 O   0  0  0  0  0  0  0  0  0  0  0  0
  -48.9916   -0.4845   17.5611 O   0  0  0  0  0  0  0  0  0  0  0  0
  -48.0170   -1.9309   19.4381 O   0  0  0  0  0  0  0  0  0  0  0  0
  -48.7152   -4.3644   17.5335 C   0  0  0  0  0  0  0  0  0  0  0  0
  -48.9696    0.6449   18.3346 C   0  0  0  0  0  0  0  0  0  0  0  0
  -50.1271    1.3231   18.6741 C   0  0  0  0  0  0  0  0  0  0  0  0
  -50.0670    2.4495   19.4597 C   0  0  0  0  0  0  0  0  0  0  0  0
  -48.8518    2.9093   19.9136 C   0  0  0  0  0  0  0  0  0  0  0  0
  -47.6961    2.2402   19.5814 C   0  0  0  0  0  0  0  0  0  0  0  0
  -47.7551    1.1138   18.7960 C   0  0  0  0  0  0  0  0  0  0  0  0
  -49.4907   -5.1024   18.6420 C   0  0  0  0  0  0  0  0  0  0  0  0
  -48.6124   -5.9487   19.4116 O   0  0  0  0  0  0  0  0  0  0  0  0
  -49.0107   -7.3272   19.2974 C   0  0  0  0  0  0  0  0  0  0  0  0
  -49.9740   -7.3580   18.0895 C   0  0  0  0  0  0  0  0  0  0  0  0
  -50.6519   -5.9848   18.1392 C   0  0  0  0  0  0  0  0  0  0  0  0
  -51.1041   -5.6353   16.8208 O   0  0  0  0  0  0  0  0  0  0  0  0
  -49.3333   -7.6042   16.8283 O   0  0  0  0  0  0  0  0  0  0  0  0
  -47.6969   -8.0940   19.1990 C   0  0  0  0  0  0  0  0  0  0  0  0
  -49.7223   -7.7374   20.5138 C   0  0  0  0  0  0  0  0  0  0  0  0
  -50.2714   -8.0565   21.4558 N   0  0  0  0  0  0  0  0  0  0  0  0
  -47.6824   -9.4498   19.1922 N   0  0  0  0  0  0  0  0  0  0  0  0
  -46.3708   -9.7905   19.1009 C   0  0  0  0  0  0  0  0  0  0  0  0
  -45.5779   -8.6895   19.0478 C   0  0  0  0  0  0  0  0  0  0  0  0
  -46.4452   -7.5957   19.1093 C   0  0  0  0  0  0  0  0  0  0  0  0
  -48.6568  -10.4081   19.2506 N   0  0  0  0  0  0  0  0  0  0  0  0
  -48.2799  -11.6648   19.2188 C   0  0  0  0  0  0  0  0  0  0  0  0
  -46.9901  -12.1237   19.1320 N   0  0  0  0  0  0  0  0  0  0  0  0
  -46.0476  -11.1724   19.0760 C   0  0  0  0  0  0  0  0  0  0  0  0
  -44.7414  -11.5901   18.9927 N   0  0  0  0  0  0  0  0  0  0  0  0
  -48.4649   -0.4241   14.7712 H   0  0  0  0  0  0  0  0  0  0  0  0
  -47.6924   -2.5541   13.0708 H   0  0  0  0  0  0  0  0  0  0  0  0
  -49.8794   -4.3666   19.1959 H   0  0  0  0  0  0  0  0  0  0  0  0
  -50.6167   -8.1209   18.1551 H   0  0  0  0  0  0  0  0  0  0  0  0
  -51.4656   -5.9098   18.7158 H   0  0  0  0  0  0  0  0  0  0  0  0
  -53.1174    0.1298   17.1585 H   0  0  0  0  0  0  0  0  0  0  0  0
  -51.7776   -1.4350   15.9787 H   0  0  0  0  0  0  0  0  0  0  0  0
  -50.5561    1.5438   13.4174 H   0  0  0  0  0  0  0  0  0  0  0  0
  -51.8987    3.1081   14.5943 H   0  0  0  0  0  0  0  0  0  0  0  0
  -53.1802    2.4024   16.4672 H   0  0  0  0  0  0  0  0  0  0  0  0
  -50.4388   -0.9643   12.8531 H   0  0  0  0  0  0  0  0  0  0  0  0
  -50.3999   -1.9491   14.2270 H   0  0  0  0  0  0  0  0  0  0  0  0
  -47.2489   -0.3870   12.5683 H   0  0  0  0  0  0  0  0  0  0  0  0
  -48.5821   -0.3887   11.9740 H   0  0  0  0  0  0  0  0  0  0  0  0
  -48.4961   -4.2286   14.3754 H   0  0  0  0  0  0  0  0  0  0  0  0
  -45.8979   -2.0077   14.2532 H   0  0  0  0  0  0  0  0  0  0  0  0
  -46.5196   -3.1541   15.2533 H   0  0  0  0  0  0  0  0  0  0  0  0
  -47.6060   -0.6741   15.8207 H   0  0  0  0  0  0  0  0  0  0  0  0
  -45.8705    0.6526   16.0950 H   0  0  0  0  0  0  0  0  0  0  0  0
  -45.0434   -0.4790   15.1747 H   0  0  0  0  0  0  0  0  0  0  0  0
  -43.8699   -2.3585   16.4438 H   0  0  0  0  0  0  0  0  0  0  0  0
  -42.3460   -2.7247   18.2282 H   0  0  0  0  0  0  0  0  0  0  0  0
  -42.1427   -1.1194   19.9680 H   0  0  0  0  0  0  0  0  0  0  0  0
  -43.4676    0.8535   19.9231 H   0  0  0  0  0  0  0  0  0  0  0  0
  -44.9939    1.2169   18.1419 H   0  0  0  0  0  0  0  0  0  0  0  0
  -46.5705   -2.8994   17.1569 H   0  0  0  0  0  0  0  0  0  0  0  0
  -47.7388   -4.3762   17.7490 H   0  0  0  0  0  0  0  0  0  0  0  0
  -48.8821   -4.8282   16.6635 H   0  0  0  0  0  0  0  0  0  0  0  0
  -51.0118    0.9922   18.3458 H   0  0  0  0  0  0  0  0  0  0  0  0
  -50.9071    2.9353   19.7016 H   0  0  0  0  0  0  0  0  0  0  0  0
  -48.8089    3.7290   20.4849 H   0  0  0  0  0  0  0  0  0  0  0  0
  -46.8130    2.5739   19.9110 H   0  0  0  0  0  0  0  0  0  0  0  0
  -46.9129    0.6301   18.5571 H   0  0  0  0  0  0  0  0  0  0  0  0
  -51.2998   -6.4520   16.2676 H   0  0  0  0  0  0  0  0  0  0  0  0
  -49.9973   -7.8904   16.1287 H   0  0  0  0  0  0  0  0  0  0  0  0
  -44.5806   -8.6664   18.9789 H   0  0  0  0  0  0  0  0  0  0  0  0
  -46.1881   -6.6295   19.0907 H   0  0  0  0  0  0  0  0  0  0  0  0
  -49.0025  -12.3545   19.2620 H   0  0  0  0  0  0  0  0  0  0  0  0
  -44.5585  -12.4504   18.9777 H   0  0  0  0  0  0  0  0  0  0  0  0
  -44.0870  -11.0024   18.9544 H   0  0  0  0  0  0  0  0  0  0  0  0
  -48.2040    0.8748   12.9149 H   0  0  0  0  0  0  0  0  0  0  0  0
  1  2  2  0
  2  3  1  0
  3  4  2  0
  3  7  1  0
  4  5  1  0
  5  6  2  0
  6  1  1  0
  7  8  1  0
  8  9  1  0
  8 10  1  0
 10 11  1  0
 10 12  1  0
 12 13  1  0
 13 14  1  0
 13 21  1  0
 14 15  1  0
 15 16  2  0
 16 17  1  0
 17 18  2  0
 18 19  1  0
 19 20  2  0
 20 15  1  0
 21 22  1  0
 22 23  1  0
 22 24  1  0
 22 25  2  0
 23 26  1  0
 24 27  1  0
 27 28  2  0
 28 29  1  0
 29 30  2  0
 30 31  1  0
 31 32  2  0
 32 27  1  0
 33 26  1  0
 33 34  1  0
 34 35  1  0
 35 36  1  0
 35 40  1  0
 35 41  1  0
 36 37  1  0
 36 39  1  0
 37 33  1  0
 37 38  1  0
 40 43  1  0
 41 42  3  0
 43 44  1  0
 43 47  1  0
 44 45  2  0
 45 46  1  0
 46 40  2  0
 47 48  2  0
 48 49  1  0
 49 50  2  0
 50 44  1  0
 50 51  1  0
  1 57  1  0
  2 58  1  0
  4 59  1  0
  5 60  1  0
  6 61  1  0
  7 62  1  0
  7 63  1  0
  8 52  1  0
  9 64  1  0
  9 65  1  0
  9 92  1  0
 10 53  1  0
 11 66  1  0
 12 67  1  0
 12 68  1  0
 13 69  1  0
 14 70  1  0
 14 71  1  0
 16 72  1  0
 17 73  1  0
 18 74  1  0
 19 75  1  0
 20 76  1  0
 21 77  1  0
 26 78  1  0
 26 79  1  0
 28 80  1  0
 29 81  1  0
 30 82  1  0
 31 83  1  0
 32 84  1  0
 33 54  1  0
 36 55  1  0
 37 56  1  0
 38 85  1  0
 39 86  1  0
 45 87  1  0
 46 88  1  0
 48 89  1  0
 51 90  1  0
 51 91  1  0
M  CHG  1   9   1
M  END
>  <LF dG>
-4.767

>  <LF VSscore>
-11.387

>  <LF Rank Score>
-9.78

>  <LF LE>
-0.093

>  <LF Structure Name>
C:\Users\Odara\AppData\Local\Temp\LeadFinder_8576_1\Ligand_1.sdf

>  <LF SDF id>
0

>  <LF Pose rank>
0

>  <LF version>
2001 1, 19 January 2019

>  <Favorite_cresset>
false

>  <MW_cresset>
714.7

>  <#Atoms_cresset>
51

>  <SlogP_cresset>
4

>  <TPSA_cresset>
225.1

>  <Flexibility_cresset>
17.1

>  <#RB_cresset>
18

>  <Rof5_cresset>
3

>  <Filename_cresset>
drag.31_72.sdf

>  <Confs_cresset>
0

>  <Poses_cresset>
0

$$$$
Site3m_NHC_D
  xed2sdf_05210316543D
 
 31 32  0  0  1  0  0  0  0  0999 V2000
  -45.4512   -1.8904   18.8569 O   0  0  0  0  0  0  0  0  0  0  0  0
  -42.8736   -3.2632   17.9463 O   0  0  0  0  0  0  0  0  0  0  0  0
  -42.2001   -1.0399   19.1076 O   0  0  0  0  0  0  0  0  0  0  0  0
  -44.6558    1.3569   17.9567 O   0  0  0  0  0  0  0  0  0  0  0  0
  -47.8574   -2.5419   17.2584 O   0  0  0  0  0  0  0  0  0  0  0  0
  -47.3828    0.7323   12.4949 O   0  0  0  0  0  0  0  0  0  0  0  0
  -45.9082   -1.6973   16.4826 N   0  0  0  0  0  0  0  0  0  0  0  0
  -48.0461   -1.3181   15.4726 N   0  0  0  0  0  0  0  0  0  0  0  0
  -48.0894    0.0116   13.5244 N   0  0  0  0  0  0  0  0  0  0  0  0
  -43.6021   -2.1355   17.4390 C   0  0  0  0  0  0  0  0  0  0  0  0
  -43.3651   -0.8750   18.2860 C   0  0  0  0  0  0  0  0  0  0  0  0
  -45.1183   -2.3511   17.5387 C   0  0  0  0  0  0  0  0  0  0  0  0
  -44.6205   -0.7619   19.1723 C   0  0  0  0  0  0  0  0  0  0  0  0
  -45.3577    0.5633   18.9246 C   0  0  0  0  0  0  0  0  0  0  0  0
  -45.2861   -0.9565   15.5545 C   0  0  0  0  0  0  0  0  0  0  0  0
  -47.2456   -1.8626   16.4276 C   0  0  0  0  0  0  0  0  0  0  0  0
  -46.0126   -0.3872   14.5750 C   0  0  0  0  0  0  0  0  0  0  0  0
  -47.4293   -0.5753   14.5301 C   0  0  0  0  0  0  0  0  0  0  0  0
  -43.2849   -2.0322   16.4963 H   0  0  0  0  0  0  0  0  0  0  0  0
  -43.2173   -0.0619   17.7233 H   0  0  0  0  0  0  0  0  0  0  0  0
  -45.3515   -3.3128   17.3945 H   0  0  0  0  0  0  0  0  0  0  0  0
  -44.3738   -0.7656   20.1414 H   0  0  0  0  0  0  0  0  0  0  0  0
  -42.6823   -3.9323   17.2197 H   0  0  0  0  0  0  0  0  0  0  0  0
  -41.5588   -1.7016   18.7044 H   0  0  0  0  0  0  0  0  0  0  0  0
  -45.2453    2.0790   17.5785 H   0  0  0  0  0  0  0  0  0  0  0  0
  -46.7146    0.1429   12.0273 H   0  0  0  0  0  0  0  0  0  0  0  0
  -48.9666   -0.0447   13.4903 H   0  0  0  0  0  0  0  0  0  0  0  0
  -46.2799    0.3718   18.5886 H   0  0  0  0  0  0  0  0  0  0  0  0
  -45.4049    1.0707   19.7848 H   0  0  0  0  0  0  0  0  0  0  0  0
  -44.2949   -0.8282   15.5896 H   0  0  0  0  0  0  0  0  0  0  0  0
  -45.5607    0.1685   13.8773 H   0  0  0  0  0  0  0  0  0  0  0  0
  1 12  1  0
  1 13  1  0
  4 14  1  0
  5 16  2  0
  6  9  1  0
  7 15  1  0
  7 16  1  0
  8 16  1  0
  8 18  2  0
  9 18  1  0
 10  2  1  0
 10 11  1  0
 10 12  1  0
 11  3  1  0
 11 13  1  0
 12  7  1  0
 13 14  1  0
 15 17  2  0
 17 18  1  0
  2 23  1  0
  3 24  1  0
  4 25  1  0
  6 26  1  0
  9 27  1  0
 10 19  1  0
 11 20  1  0
 12 21  1  0
 13 22  1  0
 14 28  1  0
 14 29  1  0
 15 30  1  0
 17 31  1  0
M  END
>  <LF dG>
-4.532

>  <LF VSscore>
-8.003

>  <LF Rank Score>
-7.373

>  <LF LE>
-0.252

>  <LF Structure Name>
C:\Users\Odara\AppData\Local\Temp\LeadFinder_408_1\Ligand_1.sdf

>  <LF SDF id>
0

>  <LF Pose rank>
0

>  <LF version>
2001 1, 19 January 2019

>  <PUBCHEM_COMPOUND_CID>
197020

>  <PUBCHEM_COMPOUND_CANONICALIZED>
1

>  <PUBCHEM_CACTVS_COMPLEXITY>
398

>  <PUBCHEM_CACTVS_HBOND_ACCEPTOR>
6

>  <PUBCHEM_CACTVS_HBOND_DONOR>
5

>  <PUBCHEM_CACTVS_ROTATABLE_BOND>
3

>  <PUBCHEM_CACTVS_SUBSKEYS>
AAADccBzOAAAAAAAAAAAAAAAAAAAASAAAAAgAAAAAAAAAAAAAAAAHgAUCAAACBThgAYBAANQBgCoACJmdACAAAEAAgAoAAAYABCDEAIAgAAOQAAHFgITAADwMAIAAAAAAAAAAAAAAAAAAAAAAAAAAAAAAA==

>  <PUBCHEM_IUPAC_OPENEYE_NAME>
1-[(2R,3R,4S,5R)-3,4-dihydroxy-5-(hydroxymethyl)tetrahydrofuran-2-yl]-4-(hydroxyamino)pyrimidin-2-one

>  <PUBCHEM_IUPAC_CAS_NAME>
1-[(2R,3R,4S,5R)-3,4-dihydroxy-5-(hydroxymethyl)-2-oxolanyl]-4-(hydroxyamino)-2-pyrimidinone

>  <PUBCHEM_IUPAC_NAME_MARKUP>
1-[(2<I>R</I>,3<I>R</I>,4<I>S</I>,5<I>R</I>)-3,4-dihydroxy-5-(hydroxymethyl)oxolan-2-yl]-4-(hydroxyamino)pyrimidin-2-one

>  <PUBCHEM_IUPAC_NAME>
1-[(2R,3R,4S,5R)-3,4-dihydroxy-5-(hydroxymethyl)oxolan-2-yl]-4-(hydroxyamino)pyrimidin-2-one

>  <PUBCHEM_IUPAC_SYSTEMATIC_NAME>
1-[(2R,3R,4S,5R)-5-(hydroxymethyl)-3,4-bis(oxidanyl)oxolan-2-yl]-4-(oxidanylamino)pyrimidin-2-one

>  <PUBCHEM_IUPAC_TRADITIONAL_NAME>
1-[(2R,3R,4S,5R)-3,4-dihydroxy-5-methylol-tetrahydrofuran-2-yl]-4-(hydroxyamino)pyrimidin-2-one

>  <PUBCHEM_IUPAC_INCHI>
InChI=1S/C9H13N3O6/c13-3-4-6(14)7(15)8(18-4)12-2-1-5(11-17)10-9(12)16/h1-2,4,6-8,13-15,17H,3H2,(H,10,11,16)/t4-,6-,7-,8-/m1/s1

>  <PUBCHEM_IUPAC_INCHIKEY>
XCUAIINAJCDIPM-XVFCMESISA-N

>  <PUBCHEM_XLOGP3>
-2.2

>  <PUBCHEM_EXACT_MASS>
259.080435

>  <PUBCHEM_MOLECULAR_FORMULA>
C9H13N3O6

>  <PUBCHEM_MOLECULAR_WEIGHT>
259.22

>  <PUBCHEM_OPENEYE_CAN_SMILES>
C1=CN(C(=O)N=C1NO)C2C(C(C(O2)CO)O)O

>  <PUBCHEM_OPENEYE_ISO_SMILES>
C1=CN(C(=O)N=C1NO)[C@H]2[C@@H]([C@@H]([C@H](O2)CO)O)O

>  <PUBCHEM_CACTVS_TPSA>
135

>  <PUBCHEM_MONOISOTOPIC_WEIGHT>
259.080435

>  <PUBCHEM_TOTAL_CHARGE>
0

>  <PUBCHEM_HEAVY_ATOM_COUNT>
18

>  <PUBCHEM_ATOM_DEF_STEREO_COUNT>
4

>  <PUBCHEM_ATOM_UDEF_STEREO_COUNT>
0

>  <PUBCHEM_BOND_DEF_STEREO_COUNT>
0

>  <PUBCHEM_BOND_UDEF_STEREO_COUNT>
0

>  <PUBCHEM_ISOTOPIC_ATOM_COUNT>
0

>  <PUBCHEM_COMPONENT_COUNT>
1

>  <PUBCHEM_CACTVS_TAUTO_COUNT>
-1

>  <PUBCHEM_COORDINATE_TYPE>
1
5
255

>  <PUBCHEM_BONDANNOTATIONS>
13  14  6
15  17  8
17  18  8
10  2  5
11  3  5
12  7  6
7  15  8
7  16  8
8  16  8
8  18  8

>  <Favorite_cresset>
false

>  <MW_cresset>
259.2

>  <#Atoms_cresset>
18

>  <SlogP_cresset>
-1.3

>  <TPSA_cresset>
134.8

>  <Flexibility_cresset>
5.8

>  <#RB_cresset>
7

>  <Rof5_cresset>
0

>  <Filename_cresset>
drag.45_885.sdf

>  <Confs_cresset>
0

>  <Poses_cresset>
0

$$$$
Site3m_DAR_D
  xed2sdf_05210316543D
 
 82 86  0  0  1  0  0  0  0  0999 V2000
  -41.7370    0.0469   20.2614 O   0  0  0  0  0  0  0  0  0  0  0  0
  -42.5020   -0.0091   19.3144 C   0  0  0  0  0  0  0  0  0  0  0  0
  -43.4240    1.1379   18.9674 C   0  0  0  0  0  0  0  0  0  0  0  0
  -44.7590    0.6309   18.4214 C   0  0  0  0  0  0  0  0  0  0  0  0
  -44.4140   -0.1881   17.1744 C   0  0  0  0  0  0  0  0  0  0  0  0
  -45.6760   -0.6711   16.5944 N   0  0  0  0  0  0  0  0  0  0  0  0
  -46.2080   -0.2311   15.2924 C   0  0  0  0  0  0  0  0  0  0  0  0
  -47.0620   -1.4911   15.0584 C   0  0  0  0  0  0  0  0  0  0  0  0
  -48.1590   -1.5401   14.0214 C   0  0  0  0  0  0  0  0  0  0  0  0
  -48.0340   -0.5921   13.0534 N   0  0  0  0  0  0  0  0  0  0  0  0
  -48.9010    0.5899   13.0794 C   0  0  0  0  0  0  0  0  0  0  0  0
  -48.4860    1.3719   11.8234 C   0  0  0  0  0  0  0  0  0  0  0  0
  -48.7990    2.8679   11.9904 C   0  0  0  0  0  0  0  0  0  0  0  0
  -50.3070    3.1389   11.8294 C   0  0  0  0  0  0  0  0  0  0  0  0
  -50.5800    4.4799   11.1184 C   0  0  0  0  0  0  0  0  0  0  0  0
  -51.9730    5.0099   11.4954 C   0  0  0  0  0  0  0  0  0  0  0  0
  -52.8030    5.0849   10.2824 N   0  0  0  0  0  0  0  0  0  0  0  0
  -53.9440    4.3699   10.1904 C   0  0  0  0  0  0  0  0  0  0  0  0
  -54.3340    3.5759   11.0434 O   0  0  0  0  0  0  0  0  0  0  0  0
  -54.7760    4.5169    8.9734 C   0  0  0  0  0  0  0  0  0  0  0  0
  -54.8100    5.7309    8.3214 C   0  0  0  0  0  0  0  0  0  0  0  0
  -55.5950    5.8889    7.2094 C   0  0  0  0  0  0  0  0  0  0  0  0
  -56.3590    4.9089    6.6854 N   0  0  0  0  0  0  0  0  0  0  0  0
  -56.3040    3.7269    7.3234 C   0  0  0  0  0  0  0  0  0  0  0  0
  -55.5380    3.4799    8.4504 C   0  0  0  0  0  0  0  0  0  0  0  0
  -55.5020    2.2029    9.0294 N   0  0  0  0  0  0  0  0  0  0  0  0
  -56.4930    1.5889    9.7074 C   0  0  0  0  0  0  0  0  0  0  0  0
  -57.5310    2.1299   10.0574 O   0  0  0  0  0  0  0  0  0  0  0  0
  -56.1540    0.1359    9.9894 C   0  0  0  0  0  0  0  0  0  0  0  0
  -56.4080   -0.9121    8.9154 C   0  0  0  0  0  0  0  0  0  0  0  0
  -56.3570   -2.2711    9.1434 C   0  0  0  0  0  0  0  0  0  0  0  0
  -56.6000   -3.1591    8.1204 C   0  0  0  0  0  0  0  0  0  0  0  0
  -56.9020   -2.6951    6.8624 C   0  0  0  0  0  0  0  0  0  0  0  0
  -56.9630   -1.3401    6.6284 C   0  0  0  0  0  0  0  0  0  0  0  0
  -57.3530   -0.7471    5.0414 Cl  0  0  0  0  0  0  0  0  0  0  0  0
  -56.7170   -0.4541    7.6534 C   0  0  0  0  0  0  0  0  0  0  0  0
  -49.1280   -2.4631   14.1294 C   0  0  0  0  0  0  0  0  0  0  0  0
  -49.1190   -3.3901   15.2614 C   0  0  0  0  0  0  0  0  0  0  0  0
  -48.4310   -3.0761   16.3594 C   0  0  0  0  0  0  0  0  0  0  0  0
  -47.6670   -1.7791   16.4344 C   0  0  0  0  0  0  0  0  0  0  0  0
  -46.4170   -1.5821   17.2424 C   0  0  0  0  0  0  0  0  0  0  0  0
  -46.1400   -2.1381   18.2964 O   0  0  0  0  0  0  0  0  0  0  0  0
  -43.4340   -1.3061   17.4684 C   0  0  0  0  0  0  0  0  0  0  0  0
  -43.4170   -2.3341   16.8124 O   0  0  0  0  0  0  0  0  0  0  0  0
  -42.5900   -1.0861   18.5014 N   0  0  0  0  0  0  0  0  0  0  0  0
  -42.9850    1.7139   18.2774 H   0  0  0  0  0  0  0  0  0  0  0  0
  -43.6030    1.6619   19.7994 H   0  0  0  0  0  0  0  0  0  0  0  0
  -45.3550    1.3989   18.1834 H   0  0  0  0  0  0  0  0  0  0  0  0
  -45.2490    0.0809   19.0974 H   0  0  0  0  0  0  0  0  0  0  0  0
  -43.9410    0.3889   16.5084 H   0  0  0  0  0  0  0  0  0  0  0  0
  -45.4970   -0.1051   14.6004 H   0  0  0  0  0  0  0  0  0  0  0  0
  -46.6720    0.6539   15.2564 H   0  0  0  0  0  0  0  0  0  0  0  0
  -46.4320   -2.1541   14.6534 H   0  0  0  0  0  0  0  0  0  0  0  0
  -47.6490   -0.8141   12.2924 H   0  0  0  0  0  0  0  0  0  0  0  0
  -48.7470    1.1299   13.9064 H   0  0  0  0  0  0  0  0  0  0  0  0
  -49.8740    0.3569   13.0874 H   0  0  0  0  0  0  0  0  0  0  0  0
  -48.9830    1.0149   11.0334 H   0  0  0  0  0  0  0  0  0  0  0  0
  -47.5010    1.2629   11.6874 H   0  0  0  0  0  0  0  0  0  0  0  0
  -48.2950    3.3869   11.3004 H   0  0  0  0  0  0  0  0  0  0  0  0
  -48.5230    3.1489   12.9094 H   0  0  0  0  0  0  0  0  0  0  0  0
  -50.7310    3.1579   12.7344 H   0  0  0  0  0  0  0  0  0  0  0  0
  -50.6930    2.4079   11.2664 H   0  0  0  0  0  0  0  0  0  0  0  0
  -50.5310    4.3459   10.1294 H   0  0  0  0  0  0  0  0  0  0  0  0
  -49.8910    5.1459   11.4064 H   0  0  0  0  0  0  0  0  0  0  0  0
  -51.8880    5.9199   11.9024 H   0  0  0  0  0  0  0  0  0  0  0  0
  -52.4000    4.3949   12.1574 H   0  0  0  0  0  0  0  0  0  0  0  0
  -52.5550    5.6059    9.6174 H   0  0  0  0  0  0  0  0  0  0  0  0
  -54.2620    6.4959    8.6594 H   0  0  0  0  0  0  0  0  0  0  0  0
  -55.6020    6.7819    6.7594 H   0  0  0  0  0  0  0  0  0  0  0  0
  -56.8530    2.9739    6.9594 H   0  0  0  0  0  0  0  0  0  0  0  0
  -54.7550    1.7469    8.9204 H   0  0  0  0  0  0  0  0  0  0  0  0
  -56.6810   -0.1351   10.7954 H   0  0  0  0  0  0  0  0  0  0  0  0
  -55.1590    0.1409   10.0824 H   0  0  0  0  0  0  0  0  0  0  0  0
  -56.1410   -2.6131   10.0574 H   0  0  0  0  0  0  0  0  0  0  0  0
  -56.5570   -4.1431    8.2934 H   0  0  0  0  0  0  0  0  0  0  0  0
  -57.0770   -3.3401    6.1184 H   0  0  0  0  0  0  0  0  0  0  0  0
  -56.7620    0.5299    7.4804 H   0  0  0  0  0  0  0  0  0  0  0  0
  -49.8500   -2.5171   13.4404 H   0  0  0  0  0  0  0  0  0  0  0  0
  -49.6240   -4.2511   15.2124 H   0  0  0  0  0  0  0  0  0  0  0  0
  -48.4230   -3.7031   17.1374 H   0  0  0  0  0  0  0  0  0  0  0  0
  -48.3940   -1.2331   16.8494 H   0  0  0  0  0  0  0  0  0  0  0  0
  -42.0250   -1.7391   18.6754 H   0  0  0  0  0  0  0  0  0  0  0  0
  1  2  2  0
  2  3  1  0
  2 45  1  0
  3  4  1  0
  4  5  1  0
  5  6  1  0
  5 43  1  0
  6  7  1  0
  6 41  1  0
  7  8  1  0
  8  9  1  0
  8 40  1  0
  9 10  1  0
  9 37  2  0
 10 11  1  0
 11 12  1  0
 12 13  1  0
 13 14  1  0
 14 15  1  0
 15 16  1  0
 16 17  1  0
 17 18  1  0
 18 19  2  0
 18 20  1  0
 20 21  2  0
 20 25  1  0
 21 22  1  0
 22 23  2  0
 23 24  1  0
 24 25  2  0
 25 26  1  0
 26 27  1  0
 27 28  2  0
 27 29  1  0
 29 30  1  0
 30 31  2  0
 30 36  1  0
 31 32  1  0
 32 33  2  0
 33 34  1  0
 34 35  1  0
 34 36  2  0
 37 38  1  0
 38 39  2  0
 39 40  1  0
 40 41  1  0
 41 42  2  0
 43 44  2  0
 43 45  1  0
  3 46  1  0
  3 47  1  0
  4 48  1  0
  4 49  1  0
  5 50  1  0
  7 51  1  0
  7 52  1  0
  8 53  1  0
 10 54  1  0
 11 55  1  0
 11 56  1  0
 12 57  1  0
 12 58  1  0
 13 59  1  0
 13 60  1  0
 14 61  1  0
 14 62  1  0
 15 63  1  0
 15 64  1  0
 16 65  1  0
 16 66  1  0
 17 67  1  0
 21 68  1  0
 22 69  1  0
 24 70  1  0
 26 71  1  0
 29 72  1  0
 29 73  1  0
 31 74  1  0
 32 75  1  0
 33 76  1  0
 36 77  1  0
 37 78  1  0
 38 79  1  0
 39 80  1  0
 40 81  1  0
 45 82  1  0
M  END
>  <LF dG>
-8.743

>  <LF VSscore>
-10.433

>  <LF Rank Score>
-2.742

>  <LF LE>
-0.194

>  <LF Structure Name>
C:\Users\Odara\AppData\Local\Temp\LeadFinder_12916_1\Ligand_1.sdf

>  <LF SDF id>
0

>  <LF Pose rank>
0

>  <LF version>
2001 1, 19 January 2019

>  <Preferred Pose_cresset>
true

>  <Favorite_cresset>
false

>  <MW_cresset>
633.1

>  <#Atoms_cresset>
45

>  <SlogP_cresset>
2.9

>  <TPSA_cresset>
149.6

>  <Flexibility_cresset>
10.4

>  <#RB_cresset>
13

>  <Rof5_cresset>
2

>  <Filename_cresset>
dar no water site 3 monomer.sdf

>  <Confs_cresset>
0

>  <Poses_cresset>
10

>  <_cresset_fieldpoints>
    -5     -41.216442       1.090969      21.662249    -13.6027
    -5     -46.860809      -3.448532      19.199532    -17.5604
    -5     -50.821037      -1.775426      16.027969     -4.7092
    -5     -56.185753       3.318354      11.456751    -17.6388
    -5     -59.044724       1.830950      10.978583    -15.3867
    -5     -58.075871       3.858867      10.210854    -16.5574
    -5     -53.878204      -2.226819       6.707934     -1.3897
    -5     -54.497269      -1.670047       4.825540     -1.2653
    -5     -57.585793       5.227687       5.250898    -10.7668
    -5     -58.237045      -2.604580       3.398027     -1.4802
    -5     -44.808624      -3.394100      17.735901    -18.3469
    -6     -46.458405      -0.840874      10.793656     10.3580
    -6     -44.575874       2.329486      15.793002      7.5503
    -6     -41.998177       1.157452      16.364902      7.1692
    -6     -50.259743       5.766919      13.850267      3.6911
    -6     -45.764442       1.927060      13.471327      6.3118
    -6     -48.078690       5.234723       9.653292      3.1865
    -6     -52.194756       7.078346       8.447311      9.4779
    -6     -54.925560      -1.801289      11.748839      4.4755
    -6     -56.871964      -5.752649       6.660205      2.9622
    -6     -53.273788       0.547296       8.748594     10.2866
    -6     -40.473076      -2.858057      18.722023      4.8917
    -7     -40.787483       2.302666      20.466015     -1.1356
    -7     -41.144966       0.431359      16.614777     -2.0101
    -7     -47.686829       2.953528      15.348455     -2.0325
    -7     -44.512054      -2.282865      20.036034     -2.5778
    -7     -45.916157       2.482908      13.552397     -2.2900
    -7     -47.907494       1.278815      17.563557     -2.5339
    -7     -45.030853       2.778320      15.869370     -1.9982
    -7     -48.917530       1.280141      16.441772     -2.4120
    -7     -43.807030      -2.232401      14.503092     -2.3130
    -7     -45.308418      -0.049240      12.087446     -2.0953
    -7     -49.713863      -1.699776      10.995565     -2.1072
    -7     -49.889656       3.037153      15.208099     -1.9186
    -7     -50.539192      -0.353049      15.681084     -2.6510
    -7     -52.993969       1.549362      10.661770     -3.5063
    -7     -49.666641       2.240988       8.730436     -1.9883
    -7     -49.855553       5.268844      14.248695     -1.8706
    -7     -54.230457       7.296580      11.184319     -2.0798
    -7     -50.763908       7.370416       9.530291     -1.5088
    -7     -56.788448       3.880483      11.605306     -2.3379
    -7     -52.308552       2.131446       9.327586     -3.2794
    -7     -58.980591       1.821901       8.083870     -2.5043
    -7     -55.923981      -5.201047      10.767269     -0.9925
    -7     -56.988289      -6.042855       6.355290     -0.9769
    -7     -58.726936      -5.521176       6.945606     -0.9678
    -7     -59.759392      -1.526681       8.788961     -1.8980
    -7     -54.179726       1.096454       6.495754     -2.5191
    -7     -46.839836      -3.461402      12.302933     -1.8350
    -7     -45.084782      -3.903665      16.181004     -2.5810
    -8     -48.212090      -2.270569      15.262836      7.0842
    -8     -43.933853       0.489688      18.198132      5.5607
    -8     -49.317230       2.114847      12.113230      5.9172
    -8     -49.799408       3.560583      11.604897      5.7187
    -8     -50.908585       4.089877      11.640829      5.4954
    -8     -55.289467       4.712784       8.173167      5.3646
    -8     -56.656693      -1.801572       7.891225      7.1921
    -8     -57.014771      -1.258099       6.426858      5.6134

$$$$
