Camostat.pdb
 OpenBabel02182114013D

 52 53  0  0  0  0  0  0  0  0999 V2000
   10.1520    2.7290   23.1960 O   0  0  0  0  0  0  0  0  0  0  0  0
    6.8250   -3.6880   25.6740 O   0  0  0  0  0  0  0  0  0  0  0  0
    8.0480   -2.8420   23.9920 O   0  0  0  0  0  0  0  0  0  0  0  0
    7.4230   -5.8420   27.2630 O   0  0  0  0  0  0  0  0  0  0  0  0
    9.9990    1.5420   21.2760 O   0  0  0  0  0  0  0  0  0  0  0  0
    8.5980   -6.7080   25.5120 N   0  0  0  0  0  0  0  0  0  0  0  0
   13.1840    6.4930   19.0020 N   0  0  0  0  0  0  0  0  0  0  0  0
   14.5160    7.0120   17.1520 N   0  0  0  0  0  0  0  0  0  0  0  0
   15.0070    5.0820   18.3400 N   0  3  0  0  0  0  0  0  0  0  0  0
    7.9800   -0.2500   25.0500 C   0  0  0  0  0  0  0  0  0  0  0  0
    7.1730   -1.3520   25.7130 C   0  0  0  0  0  0  0  0  0  0  0  0
    9.3530   -0.3400   24.9830 C   0  0  0  0  0  0  0  0  0  0  0  0
    7.3370    0.8400   24.5040 C   0  0  0  0  0  0  0  0  0  0  0  0
    9.4380    1.7480   23.8240 C   0  0  0  0  0  0  0  0  0  0  0  0
   10.0820    0.6530   24.3720 C   0  0  0  0  0  0  0  0  0  0  0  0
    8.0610    1.8360   23.8920 C   0  0  0  0  0  0  0  0  0  0  0  0
    7.4120   -2.6740   25.0170 C   0  0  0  0  0  0  0  0  0  0  0  0
    6.9440   -4.9980   25.0920 C   0  0  0  0  0  0  0  0  0  0  0  0
   11.0680    3.6270   21.1200 C   0  0  0  0  0  0  0  0  0  0  0  0
    7.6780   -5.8920   26.0680 C   0  0  0  0  0  0  0  0  0  0  0  0
   10.3640    2.5450   21.8690 C   0  0  0  0  0  0  0  0  0  0  0  0
   11.2700    3.4900   19.7160 C   0  0  0  0  0  0  0  0  0  0  0  0
   11.5450    4.7900   21.7930 C   0  0  0  0  0  0  0  0  0  0  0  0
   12.4900    5.5920   19.7010 C   0  0  0  0  0  0  0  0  0  0  0  0
   11.9360    4.4210   19.0230 C   0  0  0  0  0  0  0  0  0  0  0  0
   12.2200    5.7380   21.1340 C   0  0  0  0  0  0  0  0  0  0  0  0
    9.3770   -7.6150   26.3650 C   0  0  0  0  0  0  0  0  0  0  0  0
    8.9030   -6.7270   24.0690 C   0  0  0  0  0  0  0  0  0  0  0  0
   14.2550    6.1920   18.1860 C   0  0  0  0  0  0  0  0  0  0  0  0
   12.9180    7.4540   19.0810 H   0  0  0  0  0  0  0  0  0  0  0  0
   13.9530    7.8260   17.0050 H   0  0  0  0  0  0  0  0  0  0  0  0
   15.2730    6.8150   16.5290 H   0  0  0  0  0  0  0  0  0  0  0  0
   14.7770    4.4070   19.0390 H   0  0  0  0  0  0  0  0  0  0  0  0
   15.7890    4.9190   17.7380 H   0  0  0  0  0  0  0  0  0  0  0  0
    6.2010   -1.1230   25.6670 H   0  0  0  0  0  0  0  0  0  0  0  0
    7.4600   -1.4340   26.6670 H   0  0  0  0  0  0  0  0  0  0  0  0
    9.8210   -1.1290   25.3800 H   0  0  0  0  0  0  0  0  0  0  0  0
    6.3400    0.9070   24.5520 H   0  0  0  0  0  0  0  0  0  0  0  0
   11.0790    0.5830   24.3240 H   0  0  0  0  0  0  0  0  0  0  0  0
    7.5910    2.6240   23.4960 H   0  0  0  0  0  0  0  0  0  0  0  0
    7.4540   -4.9410   24.2330 H   0  0  0  0  0  0  0  0  0  0  0  0
    6.0370   -5.3720   24.9010 H   0  0  0  0  0  0  0  0  0  0  0  0
   10.9100    2.6870   19.2420 H   0  0  0  0  0  0  0  0  0  0  0  0
   11.3720    4.8990   22.7720 H   0  0  0  0  0  0  0  0  0  0  0  0
   12.0540    4.3160   18.0350 H   0  0  0  0  0  0  0  0  0  0  0  0
   12.5420    6.5500   21.6210 H   0  0  0  0  0  0  0  0  0  0  0  0
   10.0210   -8.1250   25.7950 H   0  0  0  0  0  0  0  0  0  0  0  0
    9.8780   -7.0880   27.0500 H   0  0  0  0  0  0  0  0  0  0  0  0
    8.7610   -8.2520   26.8300 H   0  0  0  0  0  0  0  0  0  0  0  0
    9.6300   -7.3920   23.8990 H   0  0  0  0  0  0  0  0  0  0  0  0
    8.0850   -6.9840   23.5540 H   0  0  0  0  0  0  0  0  0  0  0  0
    9.2000   -5.8190   23.7760 H   0  0  0  0  0  0  0  0  0  0  0  0
  1 14  1  0  0  0  0
  1 21  1  0  0  0  0
  2 17  1  0  0  0  0
  2 18  1  0  0  0  0
  3 17  2  0  0  0  0
  4 20  2  0  0  0  0
  5 21  2  0  0  0  0
  6 20  1  0  0  0  0
  6 27  1  0  0  0  0
  6 28  1  0  0  0  0
  7 24  1  0  0  0  0
  7 29  1  0  0  0  0
  7 30  1  0  0  0  0
  8 29  2  0  0  0  0
  8 31  1  0  0  0  0
  8 32  1  0  0  0  0
  9 29  1  0  0  0  0
  9 33  1  0  0  0  0
  9 34  1  0  0  0  0
 10 11  1  0  0  0  0
 10 12  2  0  0  0  0
 10 13  1  0  0  0  0
 11 17  1  0  0  0  0
 11 35  1  0  0  0  0
 11 36  1  0  0  0  0
 12 15  1  0  0  0  0
 12 37  1  0  0  0  0
 13 16  2  0  0  0  0
 13 38  1  0  0  0  0
 14 15  2  0  0  0  0
 14 16  1  0  0  0  0
 15 39  1  0  0  0  0
 16 40  1  0  0  0  0
 18 20  1  0  0  0  0
 18 41  1  0  0  0  0
 18 42  1  0  0  0  0
 19 21  1  0  0  0  0
 19 22  2  0  0  0  0
 19 23  1  0  0  0  0
 22 25  1  0  0  0  0
 22 43  1  0  0  0  0
 23 26  2  0  0  0  0
 23 44  1  0  0  0  0
 24 25  2  0  0  0  0
 24 26  1  0  0  0  0
 25 45  1  0  0  0  0
 26 46  1  0  0  0  0
 27 47  1  0  0  0  0
 27 48  1  0  0  0  0
 27 49  1  0  0  0  0
 28 50  1  0  0  0  0
 28 51  1  0  0  0  0
 28 52  1  0  0  0  0
M  CHG  1   9   1
M  END
>  <HEADER>
                                                                          

>  <TITLE>
    5284360_D                                                             

>  <MASTER>
        0    0    0    0    0    0    0    0   52    0   52    0          

$$$$
