Camostat.pdb
  RxDock  02242101553D
librxdock.so/0.1.0
 34 35  0  0  0  0  0  0  0  0999 V2000
  -49.1726   -1.7780   16.2005 O   0  0  0  0  0  0
  -52.6671   -6.2164   16.9114 O   0  0  0  0  0  0
  -54.7697   -6.8544   16.4503 O   0  0  0  0  0  0
  -50.0885   -7.4485   16.9067 O   0  0  0  0  0  0
  -50.2928    0.0838   16.8312 O   0  0  0  0  0  0
  -50.6388   -7.8723   19.0779 N   0  0  0  0  0  0
  -44.4269    1.6352   18.6983 N   0  0  0  0  0  0
  -42.1068    1.4368   18.9076 N   0  0  0  0  0  0
  -43.3953   -0.4645   19.2269 N   0  3  0  0  0  0
  -52.7526   -3.8250   16.0499 C   0  0  0  0  0  0
  -54.0804   -4.5595   15.9965 C   0  0  0  0  0  0
  -51.9607   -3.7409   14.9259 C   0  0  0  0  0  0
  -52.3418   -3.2313   17.2240 C   0  0  0  0  0  0
  -50.3499   -2.4695   16.1503 C   0  0  0  0  0  0
  -50.7638   -3.0654   14.9724 C   0  0  0  0  0  0
  -51.1458   -2.5548   17.2762 C   0  0  0  0  0  0
  -53.9127   -5.9892   16.4626 C   0  0  0  0  0  0
  -52.3997   -7.5179   17.4623 C   0  0  0  0  0  0
  -47.9774    0.0879   17.2229 C   0  0  0  0  0  0
  -50.9239   -7.6084   17.7854 C   0  0  0  0  0  0
  -49.2435   -0.5330   16.7342 C   0  0  0  0  0  0
  -46.7276   -0.4977   16.8683 C   0  0  0  0  0  0
  -48.0049    1.2536   18.0435 C   0  0  0  0  0  0
  -45.5813    1.1651   18.2204 C   0  0  0  0  0  0
  -45.5765    0.0084   17.3261 C   0  0  0  0  0  0
  -46.8749    1.7834   18.5242 C   0  0  0  0  0  0
  -49.2386   -7.9899   19.5052 C   0  0  0  0  0  0
  -51.6693   -8.0871   20.1111 C   0  0  0  0  0  0
  -43.3196    0.8580   18.9692 C   0  0  0  0  0  0
  -44.3605    2.6160   18.8831 H   0  0  0  0  0  0
  -42.0280    2.4106   18.6915 H   0  0  0  0  0  0
  -41.2809    0.8999   19.0799 H   0  0  0  0  0  0
  -42.5649   -1.0122   19.3140 H   0  0  0  0  0  0
  -44.2867   -0.9002   19.3536 H   0  0  0  0  0  0
  1 14  1  0  0  0
  1 21  1  0  0  0
  2 17  1  0  0  0
  2 18  1  0  0  0
  3 17  2  0  0  0
  4 20  2  0  0  0
  5 21  2  0  0  0
  6 20  1  0  0  0
  6 27  1  0  0  0
  6 28  1  0  0  0
  7 24  1  0  0  0
  7 29  1  0  0  0
  7 30  1  0  0  0
  8 29  2  0  0  0
  8 31  1  0  0  0
  8 32  1  0  0  0
  9 29  1  0  0  0
  9 33  1  0  0  0
  9 34  1  0  0  0
 10 11  1  0  0  0
 10 12  2  0  0  0
 10 13  1  0  0  0
 11 17  1  0  0  0
 12 15  1  0  0  0
 13 16  2  0  0  0
 14 15  2  0  0  0
 14 16  1  0  0  0
 18 20  1  0  0  0
 19 21  1  0  0  0
 19 22  2  0  0  0
 19 23  1  0  0  0
 22 25  1  0  0  0
 23 26  2  0  0  0
 24 25  2  0  0  0
 24 26  1  0  0  0
M  END
>  <CHROM.0>
-177.10934749,-179.81733216,58.94967855

>  <CHROM.1>
129.57472517,-19.21098529,-3.75032533,174.79447980,-31.90567733,172.90555077
94.92216412,5.26126326,-58.58723463,13.12147699,-49.37696038,-2.97168671
17.44835866,0.67661907,-0.43273378,-0.34008284

>  <HEADER>
                                                                          

>  <MASTER>
        0    0    0    0    0    0    0    0   52    0   52    0          

>  <Name>
Camostat.pdb

>  <RI>
-1.18531e+09

>  <Rbt.Current_Directory>
/root/miniconda3/envs/rdock/share/rxdock-2013.1.1_148c5bd1-0/data/ligands/prepped_ligands/Camostat

>  <Rbt.Executable>
rbdock/0.1.0

>  <Rbt.Library>
librxdock.so/0.1.0

>  <Rbt.Parameter_File>
/root/miniconda3/envs/rdock/share/rxdock-2013.1.1_148c5bd1-0/data/scripts/dock.prm

>  <Rbt.Receptor>
def.prm

>  <SCORE>
-11.5885

>  <SCORE.INTER>
-6.97526

>  <SCORE.INTER.CONST>
1

>  <SCORE.INTER.POLAR>
-0.465178

>  <SCORE.INTER.REPUL>
0.0136021

>  <SCORE.INTER.ROT>
10

>  <SCORE.INTER.VDW>
-20.8617

>  <SCORE.INTER.norm>
-0.240526

>  <SCORE.INTRA>
-3.56606

>  <SCORE.INTRA.DIHEDRAL>
-10.3595

>  <SCORE.INTRA.DIHEDRAL.0>
23.8083

>  <SCORE.INTRA.POLAR>
0

>  <SCORE.INTRA.POLAR.0>
0

>  <SCORE.INTRA.REPUL>
0

>  <SCORE.INTRA.REPUL.0>
0

>  <SCORE.INTRA.VDW>
1.61368

>  <SCORE.INTRA.VDW.0>
-1.22275

>  <SCORE.INTRA.norm>
-0.122968

>  <SCORE.RESTR>
0

>  <SCORE.RESTR.CAVITY>
0

>  <SCORE.RESTR.norm>
0

>  <SCORE.SYSTEM>
-1.04716

>  <SCORE.SYSTEM.CONST>
0

>  <SCORE.SYSTEM.DIHEDRAL>
0.0223915

>  <SCORE.SYSTEM.VDW>
-1.05835

>  <SCORE.SYSTEM.norm>
-0.0361089

>  <SCORE.heavy>
29

>  <SCORE.norm>
-0.399603

>  <TITLE>
    5284360_D                                                             

$$$$
Camostat.pdb
  RxDock  02242101553D
librxdock.so/0.1.0
 34 35  0  0  0  0  0  0  0  0999 V2000
  -52.2945   -2.3179   15.5168 O   0  0  0  0  0  0
  -45.7149    0.7938   17.1815 O   0  0  0  0  0  0
  -46.6861   -1.0855   17.9336 O   0  0  0  0  0  0
  -47.3700    2.6812   18.5366 O   0  0  0  0  0  0
  -53.4786   -4.2406   15.3767 O   0  0  0  0  0  0
  -47.2083    1.1512   20.2187 N   0  0  0  0  0  0
  -48.1074   -6.3602   18.0419 N   0  0  0  0  0  0
  -46.3731   -7.9203   17.8862 N   0  0  0  0  0  0
  -48.4868   -8.5686   17.1867 N   0  3  0  0  0  0
  -48.4038   -0.9446   15.5934 C   0  0  0  0  0  0
  -46.9755   -0.4299   15.6025 C   0  0  0  0  0  0
  -49.3316   -0.4317   16.4730 C   0  0  0  0  0  0
  -48.7772   -1.9214   14.6955 C   0  0  0  0  0  0
  -51.0040   -1.8712   15.5558 C   0  0  0  0  0  0
  -50.6279   -0.8904   16.4560 C   0  0  0  0  0  0
  -50.0720   -2.3839   14.6743 C   0  0  0  0  0  0
  -46.4665   -0.3081   17.0221 C   0  0  0  0  0  0
  -45.4822    1.2351   18.5306 C   0  0  0  0  0  0
  -51.3452   -4.4085   16.3434 C   0  0  0  0  0  0
  -46.7836    1.7640   19.0938 C   0  0  0  0  0  0
  -52.4624   -3.6502   15.7076 C   0  0  0  0  0  0
  -50.6598   -3.8432   17.4577 C   0  0  0  0  0  0
  -50.9530   -5.6858   15.8456 C   0  0  0  0  0  0
  -49.1639   -5.7585   17.4907 C   0  0  0  0  0  0
  -49.6256   -4.4771   18.0226 C   0  0  0  0  0  0
  -49.9203   -6.3455   16.3812 C   0  0  0  0  0  0
  -48.4566    1.5870   20.8582 C   0  0  0  0  0  0
  -46.4651    0.0644   20.8837 C   0  0  0  0  0  0
  -47.6762   -7.6305   17.7199 C   0  0  0  0  0  0
  -47.5975   -5.8623   18.7438 H   0  0  0  0  0  0
  -45.7504   -7.2294   18.2551 H   0  0  0  0  0  0
  -46.0216   -8.8252   17.6459 H   0  0  0  0  0  0
  -49.4242   -8.6739   17.5144 H   0  0  0  0  0  0
  -48.1580   -9.1509   16.4429 H   0  0  0  0  0  0
  1 14  1  0  0  0
  1 21  1  0  0  0
  2 17  1  0  0  0
  2 18  1  0  0  0
  3 17  2  0  0  0
  4 20  2  0  0  0
  5 21  2  0  0  0
  6 20  1  0  0  0
  6 27  1  0  0  0
  6 28  1  0  0  0
  7 24  1  0  0  0
  7 29  1  0  0  0
  7 30  1  0  0  0
  8 29  2  0  0  0
  8 31  1  0  0  0
  8 32  1  0  0  0
  9 29  1  0  0  0
  9 33  1  0  0  0
  9 34  1  0  0  0
 10 11  1  0  0  0
 10 12  2  0  0  0
 10 13  1  0  0  0
 11 17  1  0  0  0
 12 15  1  0  0  0
 13 16  2  0  0  0
 14 15  2  0  0  0
 14 16  1  0  0  0
 18 20  1  0  0  0
 19 21  1  0  0  0
 19 22  2  0  0  0
 19 23  1  0  0  0
 22 25  1  0  0  0
 23 26  2  0  0  0
 24 25  2  0  0  0
 24 26  1  0  0  0
M  END
>  <CHROM.0>
-32.47535185,179.41385872,56.64202547

>  <CHROM.1>
-122.61064081,-161.16128669,-16.98005728,-69.63644542,172.60900123,-40.54251853
44.38822248,-140.97033325,-57.90763954,42.44216364,-48.78568208,-2.47032869
17.23431610,2.02933274,0.56300014,-3.11914365

>  <HEADER>
                                                                          

>  <MASTER>
        0    0    0    0    0    0    0    0   52    0   52    0          

>  <Name>
Camostat.pdb

>  <RI>
-1.18531e+09

>  <Rbt.Current_Directory>
/root/miniconda3/envs/rdock/share/rxdock-2013.1.1_148c5bd1-0/data/ligands/prepped_ligands/Camostat

>  <Rbt.Executable>
rbdock/0.1.0

>  <Rbt.Library>
librxdock.so/0.1.0

>  <Rbt.Parameter_File>
/root/miniconda3/envs/rdock/share/rxdock-2013.1.1_148c5bd1-0/data/scripts/dock.prm

>  <Rbt.Receptor>
def.prm

>  <SCORE>
-12.1451

>  <SCORE.INTER>
-10.1665

>  <SCORE.INTER.CONST>
1

>  <SCORE.INTER.POLAR>
-2.01614

>  <SCORE.INTER.REPUL>
0

>  <SCORE.INTER.ROT>
10

>  <SCORE.INTER.VDW>
-18.7116

>  <SCORE.INTER.norm>
-0.350567

>  <SCORE.INTRA>
-1.95114

>  <SCORE.INTRA.DIHEDRAL>
-5.68352

>  <SCORE.INTRA.DIHEDRAL.0>
23.8083

>  <SCORE.INTRA.POLAR>
0

>  <SCORE.INTRA.POLAR.0>
0

>  <SCORE.INTRA.REPUL>
0

>  <SCORE.INTRA.REPUL.0>
0

>  <SCORE.INTRA.VDW>
0.890622

>  <SCORE.INTRA.VDW.0>
-1.22275

>  <SCORE.INTRA.norm>
-0.0672807

>  <SCORE.RESTR>
0.00263568

>  <SCORE.RESTR.CAVITY>
0.00263568

>  <SCORE.RESTR.norm>
9.08857e-05

>  <SCORE.SYSTEM>
-0.0301186

>  <SCORE.SYSTEM.CONST>
0

>  <SCORE.SYSTEM.DIHEDRAL>
1.58565

>  <SCORE.SYSTEM.VDW>
-0.822944

>  <SCORE.SYSTEM.norm>
-0.00103857

>  <SCORE.heavy>
29

>  <SCORE.norm>
-0.418796

>  <TITLE>
    5284360_D                                                             

$$$$
Camostat.pdb
  RxDock  02242101553D
librxdock.so/0.1.0
 34 35  0  0  0  0  0  0  0  0999 V2000
  -49.6268   -1.8495   15.6935 O   0  0  0  0  0  0
  -53.0658   -6.6485   17.3240 O   0  0  0  0  0  0
  -54.2905   -7.4489   15.6211 O   0  0  0  0  0  0
  -52.1556   -7.5907   19.8443 O   0  0  0  0  0  0
  -48.7153   -3.0378   13.9977 O   0  0  0  0  0  0
  -50.3591   -8.2767   18.6202 N   0  0  0  0  0  0
  -43.3672   -1.6192   17.0246 N   0  0  0  0  0  0
  -41.9213   -1.1981   18.8130 N   0  0  0  0  0  0
  -43.7657    0.1835   18.5555 N   0  3  0  0  0  0
  -53.0078   -4.2011   15.9546 C   0  0  0  0  0  0
  -54.2618   -5.0504   16.0611 C   0  0  0  0  0  0
  -52.6047   -3.7093   14.7326 C   0  0  0  0  0  0
  -52.2747   -3.9121   17.0855 C   0  0  0  0  0  0
  -50.7381   -2.6401   15.7732 C   0  0  0  0  0  0
  -51.4753   -2.9305   14.6391 C   0  0  0  0  0  0
  -51.1444   -3.1340   16.9978 C   0  0  0  0  0  0
  -53.8994   -6.5028   16.2808 C   0  0  0  0  0  0
  -52.4829   -7.9494   17.5164 C   0  0  0  0  0  0
  -47.2060   -2.1191   15.5444 C   0  0  0  0  0  0
  -51.6509   -7.9205   18.7803 C   0  0  0  0  0  0
  -48.5773   -2.3760   15.0145 C   0  0  0  0  0  0
  -46.0726   -2.4801   14.7595 C   0  0  0  0  0  0
  -47.0179   -1.5240   16.8263 C   0  0  0  0  0  0
  -44.6118   -1.7541   16.5612 C   0  0  0  0  0  0
  -44.8301   -2.3039   15.2240 C   0  0  0  0  0  0
  -45.7911   -1.3382   17.3254 C   0  0  0  0  0  0
  -49.4554   -8.2782   19.7780 C   0  0  0  0  0  0
  -49.7716   -8.6443   17.3182 C   0  0  0  0  0  0
  -43.0197   -0.8523   18.1176 C   0  0  0  0  0  0
  -42.6328   -2.0977   16.5426 H   0  0  0  0  0  0
  -41.3695   -1.9797   18.5199 H   0  0  0  0  0  0
  -41.6495   -0.6762   19.6215 H   0  0  0  0  0  0
  -44.4694    0.0434   19.2500 H   0  0  0  0  0  0
  -43.6022    1.1043   18.2006 H   0  0  0  0  0  0
  1 14  1  0  0  0
  1 21  1  0  0  0
  2 17  1  0  0  0
  2 18  1  0  0  0
  3 17  2  0  0  0
  4 20  2  0  0  0
  5 21  2  0  0  0
  6 20  1  0  0  0
  6 27  1  0  0  0
  6 28  1  0  0  0
  7 24  1  0  0  0
  7 29  1  0  0  0
  7 30  1  0  0  0
  8 29  2  0  0  0
  8 31  1  0  0  0
  8 32  1  0  0  0
  9 29  1  0  0  0
  9 33  1  0  0  0
  9 34  1  0  0  0
 10 11  1  0  0  0
 10 12  2  0  0  0
 10 13  1  0  0  0
 11 17  1  0  0  0
 12 15  1  0  0  0
 13 16  2  0  0  0
 14 15  2  0  0  0
 14 16  1  0  0  0
 18 20  1  0  0  0
 19 21  1  0  0  0
 19 22  2  0  0  0
 19 23  1  0  0  0
 22 25  1  0  0  0
 23 26  2  0  0  0
 24 25  2  0  0  0
 24 26  1  0  0  0
M  END
>  <CHROM.0>
68.00046108,-60.03691495,-177.95396257

>  <CHROM.1>
-67.29536705,38.76335547,9.21849000,-176.64391231,164.70394362,91.51678749
106.17785551,52.97811521,56.24031640,-170.68492247,-49.20324086,-4.09798671
16.80100620,0.45340053,-0.37200896,-0.64521029

>  <HEADER>
                                                                          

>  <MASTER>
        0    0    0    0    0    0    0    0   52    0   52    0          

>  <Name>
Camostat.pdb

>  <RI>
-1.18531e+09

>  <Rbt.Current_Directory>
/root/miniconda3/envs/rdock/share/rxdock-2013.1.1_148c5bd1-0/data/ligands/prepped_ligands/Camostat

>  <Rbt.Executable>
rbdock/0.1.0

>  <Rbt.Library>
librxdock.so/0.1.0

>  <Rbt.Parameter_File>
/root/miniconda3/envs/rdock/share/rxdock-2013.1.1_148c5bd1-0/data/scripts/dock.prm

>  <Rbt.Receptor>
def.prm

>  <SCORE>
-14.5415

>  <SCORE.INTER>
-11.6472

>  <SCORE.INTER.CONST>
1

>  <SCORE.INTER.POLAR>
-0.858474

>  <SCORE.INTER.REPUL>
0.000807755

>  <SCORE.INTER.ROT>
10

>  <SCORE.INTER.VDW>
-24.1324

>  <SCORE.INTER.norm>
-0.401627

>  <SCORE.INTRA>
-1.93636

>  <SCORE.INTRA.DIHEDRAL>
-5.10861

>  <SCORE.INTRA.DIHEDRAL.0>
23.8083

>  <SCORE.INTRA.POLAR>
0

>  <SCORE.INTRA.POLAR.0>
0

>  <SCORE.INTRA.REPUL>
0

>  <SCORE.INTRA.REPUL.0>
0

>  <SCORE.INTRA.VDW>
0.617945

>  <SCORE.INTRA.VDW.0>
-1.22275

>  <SCORE.INTRA.norm>
-0.066771

>  <SCORE.RESTR>
0

>  <SCORE.RESTR.CAVITY>
0

>  <SCORE.RESTR.norm>
0

>  <SCORE.SYSTEM>
-0.957994

>  <SCORE.SYSTEM.CONST>
0

>  <SCORE.SYSTEM.DIHEDRAL>
0.158747

>  <SCORE.SYSTEM.POLAR>
-0.0067304

>  <SCORE.SYSTEM.VDW>
-1.01448

>  <SCORE.SYSTEM.norm>
-0.0330343

>  <SCORE.heavy>
29

>  <SCORE.norm>
-0.501432

>  <TITLE>
    5284360_D                                                             

$$$$
Camostat.pdb
  RxDock  02242101553D
librxdock.so/0.1.0
 34 35  0  0  0  0  0  0  0  0999 V2000
  -49.7548   -0.9045   14.7610 O   0  0  0  0  0  0
  -51.1447   -5.5226   18.5160 O   0  0  0  0  0  0
  -50.2226   -7.4768   17.9069 O   0  0  0  0  0  0
  -52.9183   -7.8379   17.0670 O   0  0  0  0  0  0
  -48.6145    0.6086   13.5245 O   0  0  0  0  0  0
  -53.3172   -5.6607   16.5220 N   0  0  0  0  0  0
  -43.9500   -1.3571   17.3400 N   0  0  0  0  0  0
  -42.9019   -2.3966   19.1531 N   0  0  0  0  0  0
  -44.7875   -1.1143   19.5743 N   0  3  0  0  0  0
  -49.1076   -4.2404   17.1023 C   0  0  0  0  0  0
  -48.8486   -5.4628   17.9649 C   0  0  0  0  0  0
  -49.8216   -3.1751   17.6053 C   0  0  0  0  0  0
  -48.6186   -4.1911   15.8147 C   0  0  0  0  0  0
  -49.5559   -2.0131   15.5343 C   0  0  0  0  0  0
  -50.0456   -2.0638   16.8272 C   0  0  0  0  0  0
  -48.8398   -3.0824   15.0320 C   0  0  0  0  0  0
  -50.1120   -6.2818   18.1141 C   0  0  0  0  0  0
  -52.4087   -6.1844   18.6983 C   0  0  0  0  0  0
  -47.4007   -0.4612   15.2265 C   0  0  0  0  0  0
  -52.9075   -6.6474   17.3465 C   0  0  0  0  0  0
  -48.6383   -0.2084   14.4316 C   0  0  0  0  0  0
  -46.1503   -0.5879   14.5547 C   0  0  0  0  0  0
  -47.4565   -0.5833   16.6460 C   0  0  0  0  0  0
  -45.0705   -1.0509   16.6823 C   0  0  0  0  0  0
  -45.0293   -0.8584   15.2335 C   0  0  0  0  0  0
  -46.3576   -0.8594   17.3565 C   0  0  0  0  0  0
  -53.8148   -5.9925   15.1806 C   0  0  0  0  0  0
  -53.2674   -4.2300   16.8772 C   0  0  0  0  0  0
  -43.8813   -1.5949   18.6973 C   0  0  0  0  0  0
  -43.0986   -1.4087   16.8174 H   0  0  0  0  0  0
  -42.2360   -2.7847   18.5150 H   0  0  0  0  0  0
  -42.8325   -2.6058   20.1285 H   0  0  0  0  0  0
  -45.1211   -0.1764   19.4954 H   0  0  0  0  0  0
  -45.1468   -1.7044   20.2976 H   0  0  0  0  0  0
  1 14  1  0  0  0
  1 21  1  0  0  0
  2 17  1  0  0  0
  2 18  1  0  0  0
  3 17  2  0  0  0
  4 20  2  0  0  0
  5 21  2  0  0  0
  6 20  1  0  0  0
  6 27  1  0  0  0
  6 28  1  0  0  0
  7 24  1  0  0  0
  7 29  1  0  0  0
  7 30  1  0  0  0
  8 29  2  0  0  0
  8 31  1  0  0  0
  8 32  1  0  0  0
  9 29  1  0  0  0
  9 33  1  0  0  0
  9 34  1  0  0  0
 10 11  1  0  0  0
 10 12  2  0  0  0
 10 13  1  0  0  0
 11 17  1  0  0  0
 12 15  1  0  0  0
 13 16  2  0  0  0
 14 15  2  0  0  0
 14 16  1  0  0  0
 18 20  1  0  0  0
 19 21  1  0  0  0
 19 22  2  0  0  0
 19 23  1  0  0  0
 22 25  1  0  0  0
 23 26  2  0  0  0
 24 25  2  0  0  0
 24 26  1  0  0  0
M  END
>  <CHROM.0>
-175.89411902,-56.55417227,62.46105647

>  <CHROM.1>
114.10205043,163.28077067,0.10460275,-66.98254331,-178.19646124,-42.53943692
73.77784754,-51.41510421,109.00263099,136.83619023,-48.83288540,-3.20996705
16.76602573,0.49439828,-0.42374465,-0.70947259

>  <HEADER>
                                                                          

>  <MASTER>
        0    0    0    0    0    0    0    0   52    0   52    0          

>  <Name>
Camostat.pdb

>  <RI>
-1.18531e+09

>  <Rbt.Current_Directory>
/root/miniconda3/envs/rdock/share/rxdock-2013.1.1_148c5bd1-0/data/ligands/prepped_ligands/Camostat

>  <Rbt.Executable>
rbdock/0.1.0

>  <Rbt.Library>
librxdock.so/0.1.0

>  <Rbt.Parameter_File>
/root/miniconda3/envs/rdock/share/rxdock-2013.1.1_148c5bd1-0/data/scripts/dock.prm

>  <Rbt.Receptor>
def.prm

>  <SCORE>
-13.9474

>  <SCORE.INTER>
-10.1219

>  <SCORE.INTER.CONST>
1

>  <SCORE.INTER.POLAR>
-1.27883

>  <SCORE.INTER.REPUL>
0.00167053

>  <SCORE.INTER.ROT>
10

>  <SCORE.INTER.VDW>
-21.1822

>  <SCORE.INTER.norm>
-0.34903

>  <SCORE.INTRA>
-2.89702

>  <SCORE.INTRA.DIHEDRAL>
-7.76281

>  <SCORE.INTRA.DIHEDRAL.0>
23.8083

>  <SCORE.INTRA.POLAR>
0

>  <SCORE.INTRA.POLAR.0>
0

>  <SCORE.INTRA.REPUL>
0

>  <SCORE.INTRA.REPUL.0>
0

>  <SCORE.INTRA.VDW>
0.984381

>  <SCORE.INTRA.VDW.0>
-1.22275

>  <SCORE.INTRA.norm>
-0.0998973

>  <SCORE.RESTR>
0

>  <SCORE.RESTR.CAVITY>
0

>  <SCORE.RESTR.norm>
0

>  <SCORE.SYSTEM>
-0.928539

>  <SCORE.SYSTEM.CONST>
0

>  <SCORE.SYSTEM.DIHEDRAL>
0.109981

>  <SCORE.SYSTEM.POLAR>
-0.00649654

>  <SCORE.SYSTEM.VDW>
-0.961441

>  <SCORE.SYSTEM.norm>
-0.0320186

>  <SCORE.heavy>
29

>  <SCORE.norm>
-0.480946

>  <TITLE>
    5284360_D                                                             

$$$$
Camostat.pdb
  RxDock  02242101553D
librxdock.so/0.1.0
 34 35  0  0  0  0  0  0  0  0999 V2000
  -49.7394   -1.1455   13.4621 O   0  0  0  0  0  0
  -48.3797   -7.1332   16.9706 O   0  0  0  0  0  0
  -48.4077   -5.3557   18.3418 O   0  0  0  0  0  0
  -48.8039   -9.9388   17.9701 O   0  0  0  0  0  0
  -48.4837    0.7060   13.1246 O   0  0  0  0  0  0
  -48.8113   -8.6125   19.8241 N   0  0  0  0  0  0
  -44.3676   -2.3725   16.7551 N   0  0  0  0  0  0
  -43.0432   -2.1859   18.6727 N   0  0  0  0  0  0
  -43.5878   -0.2417   17.5322 N   0  3  0  0  0  0
  -50.0907   -4.4729   15.8775 C   0  0  0  0  0  0
  -50.2408   -5.6927   16.7691 C   0  0  0  0  0  0
  -49.8843   -4.6243   14.5239 C   0  0  0  0  0  0
  -50.1711   -3.2092   16.4216 C   0  0  0  0  0  0
  -49.8400   -2.2497   14.2603 C   0  0  0  0  0  0
  -49.7602   -3.5189   13.7155 C   0  0  0  0  0  0
  -50.0474   -2.1002   15.6180 C   0  0  0  0  0  0
  -48.9309   -6.0089   17.4570 C   0  0  0  0  0  0
  -47.5715   -7.9073   17.8743 C   0  0  0  0  0  0
  -47.5323   -0.9544   14.4855 C   0  0  0  0  0  0
  -48.4580   -8.9247   18.5596 C   0  0  0  0  0  0
  -48.6222   -0.3955   13.6329 C   0  0  0  0  0  0
  -46.8987   -0.1183   15.4500 C   0  0  0  0  0  0
  -47.1147   -2.3101   14.3415 C   0  0  0  0  0  0
  -45.4003   -1.9430   16.0262 C   0  0  0  0  0  0
  -45.8888   -0.5758   16.1992 C   0  0  0  0  0  0
  -46.1049   -2.8000   15.0688 C   0  0  0  0  0  0
  -49.6765   -9.5238   20.5844 C   0  0  0  0  0  0
  -48.4002   -7.3677   20.5002 C   0  0  0  0  0  0
  -43.6507   -1.5860   17.6332 C   0  0  0  0  0  0
  -44.0856   -3.3267   16.6523 H   0  0  0  0  0  0
  -43.1006   -3.1791   18.7800 H   0  0  0  0  0  0
  -42.5302   -1.6452   19.3393 H   0  0  0  0  0  0
  -43.5768    0.3281   18.3522 H   0  0  0  0  0  0
  -43.5299    0.1911   16.6323 H   0  0  0  0  0  0
  1 14  1  0  0  0
  1 21  1  0  0  0
  2 17  1  0  0  0
  2 18  1  0  0  0
  3 17  2  0  0  0
  4 20  2  0  0  0
  5 21  2  0  0  0
  6 20  1  0  0  0
  6 27  1  0  0  0
  6 28  1  0  0  0
  7 24  1  0  0  0
  7 29  1  0  0  0
  7 30  1  0  0  0
  8 29  2  0  0  0
  8 31  1  0  0  0
  8 32  1  0  0  0
  9 29  1  0  0  0
  9 33  1  0  0  0
  9 34  1  0  0  0
 10 11  1  0  0  0
 10 12  2  0  0  0
 10 13  1  0  0  0
 11 17  1  0  0  0
 12 15  1  0  0  0
 13 16  2  0  0  0
 14 15  2  0  0  0
 14 16  1  0  0  0
 18 20  1  0  0  0
 19 21  1  0  0  0
 19 22  2  0  0  0
 19 23  1  0  0  0
 22 25  1  0  0  0
 23 26  2  0  0  0
 24 25  2  0  0  0
 24 26  1  0  0  0
M  END
>  <CHROM.0>
173.05270620,62.61912960,58.77725743

>  <CHROM.1>
-111.86820541,-169.81289247,29.95850997,90.98178384,-3.94382179,143.01281407
98.39417391,-109.52057532,77.61656095,-135.19322223,-47.82524964,-3.94456291
16.54302583,1.30217064,-0.50466128,-0.60149821

>  <HEADER>
                                                                          

>  <MASTER>
        0    0    0    0    0    0    0    0   52    0   52    0          

>  <Name>
Camostat.pdb

>  <RI>
-1.18531e+09

>  <Rbt.Current_Directory>
/root/miniconda3/envs/rdock/share/rxdock-2013.1.1_148c5bd1-0/data/ligands/prepped_ligands/Camostat

>  <Rbt.Executable>
rbdock/0.1.0

>  <Rbt.Library>
librxdock.so/0.1.0

>  <Rbt.Parameter_File>
/root/miniconda3/envs/rdock/share/rxdock-2013.1.1_148c5bd1-0/data/scripts/dock.prm

>  <Rbt.Receptor>
def.prm

>  <SCORE>
-10.693

>  <SCORE.INTER>
-11.8143

>  <SCORE.INTER.CONST>
1

>  <SCORE.INTER.POLAR>
-1.36221

>  <SCORE.INTER.REPUL>
0.0152263

>  <SCORE.INTER.ROT>
10

>  <SCORE.INTER.VDW>
-22.6589

>  <SCORE.INTER.norm>
-0.40739

>  <SCORE.INTRA>
2.03299

>  <SCORE.INTRA.DIHEDRAL>
0.886702

>  <SCORE.INTRA.DIHEDRAL.0>
23.8083

>  <SCORE.INTRA.POLAR>
0

>  <SCORE.INTRA.POLAR.0>
0

>  <SCORE.INTRA.REPUL>
0

>  <SCORE.INTRA.REPUL.0>
0

>  <SCORE.INTRA.VDW>
1.58964

>  <SCORE.INTRA.VDW.0>
-1.22275

>  <SCORE.INTRA.norm>
0.0701031

>  <SCORE.RESTR>
7.85124e-06

>  <SCORE.RESTR.CAVITY>
7.85124e-06

>  <SCORE.RESTR.norm>
2.70732e-07

>  <SCORE.SYSTEM>
-0.91171

>  <SCORE.SYSTEM.CONST>
0

>  <SCORE.SYSTEM.DIHEDRAL>
0.161482

>  <SCORE.SYSTEM.VDW>
-0.992451

>  <SCORE.SYSTEM.norm>
-0.0314383

>  <SCORE.heavy>
29

>  <SCORE.norm>
-0.368725

>  <TITLE>
    5284360_D                                                             

$$$$
Camostat.pdb
  RxDock  02242101553D
librxdock.so/0.1.0
 34 35  0  0  0  0  0  0  0  0999 V2000
  -49.5908   -1.7123   15.1555 O   0  0  0  0  0  0
  -52.7855   -6.2272   16.9212 O   0  0  0  0  0  0
  -54.8178   -6.9563   16.3056 O   0  0  0  0  0  0
  -50.1374   -7.3878   16.8103 O   0  0  0  0  0  0
  -50.1678    0.0269   16.4825 O   0  0  0  0  0  0
  -50.6713   -7.8412   18.9797 N   0  0  0  0  0  0
  -43.9379    0.2105   17.4625 N   0  0  0  0  0  0
  -42.4006    1.0377   19.0177 N   0  0  0  0  0  0
  -44.3149    2.2817   18.6115 N   0  3  0  0  0  0
  -53.0504   -3.8121   15.9620 C   0  0  0  0  0  0
  -54.3324   -4.5666   16.2661 C   0  0  0  0  0  0
  -52.6698   -3.5888   14.6570 C   0  0  0  0  0  0
  -52.2690   -3.3398   16.9944 C   0  0  0  0  0  0
  -50.7289   -2.4210   15.4181 C   0  0  0  0  0  0
  -51.5146   -2.8952   14.3828 C   0  0  0  0  0  0
  -51.1127   -2.6458   16.7260 C   0  0  0  0  0  0
  -54.0419   -6.0351   16.4865 C   0  0  0  0  0  0
  -52.4442   -7.5525   17.3641 C   0  0  0  0  0  0
  -47.8844   -0.5181   16.4273 C   0  0  0  0  0  0
  -50.9661   -7.5845   17.6879 C   0  0  0  0  0  0
  -49.3084   -0.7092   16.0238 C   0  0  0  0  0  0
  -47.5615    0.4527   17.4193 C   0  0  0  0  0  0
  -46.8456   -1.2897   15.8283 C   0  0  0  0  0  0
  -45.2025   -0.0538   17.1266 C   0  0  0  0  0  0
  -46.2906    0.6795   17.7716 C   0  0  0  0  0  0
  -45.5639   -1.0863   16.1513 C   0  0  0  0  0  0
  -49.2678   -7.9038   19.4076 C   0  0  0  0  0  0
  -51.6929   -8.1012   20.0114 C   0  0  0  0  0  0
  -43.5547    1.1989   18.3456 C   0  0  0  0  0  0
  -43.2159   -0.3372   17.0390 H   0  0  0  0  0  0
  -41.8357    0.2281   18.8542 H   0  0  0  0  0  0
  -42.1005    1.7249   19.6793 H   0  0  0  0  0  0
  -44.5987    2.4843   19.5473 H   0  0  0  0  0  0
  -44.5810    2.9010   17.8725 H   0  0  0  0  0  0
  1 14  1  0  0  0
  1 21  1  0  0  0
  2 17  1  0  0  0
  2 18  1  0  0  0
  3 17  2  0  0  0
  4 20  2  0  0  0
  5 21  2  0  0  0
  6 20  1  0  0  0
  6 27  1  0  0  0
  6 28  1  0  0  0
  7 24  1  0  0  0
  7 29  1  0  0  0
  7 30  1  0  0  0
  8 29  2  0  0  0
  8 31  1  0  0  0
  8 32  1  0  0  0
  9 29  1  0  0  0
  9 33  1  0  0  0
  9 34  1  0  0  0
 10 11  1  0  0  0
 10 12  2  0  0  0
 10 13  1  0  0  0
 11 17  1  0  0  0
 12 15  1  0  0  0
 13 16  2  0  0  0
 14 15  2  0  0  0
 14 16  1  0  0  0
 18 20  1  0  0  0
 19 21  1  0  0  0
 19 22  2  0  0  0
 19 23  1  0  0  0
 22 25  1  0  0  0
 23 26  2  0  0  0
 24 25  2  0  0  0
 24 26  1  0  0  0
M  END
>  <CHROM.0>
60.28023481,65.10352180,-56.90818419

>  <CHROM.1>
144.30983122,-40.10110184,-9.22878486,174.86949516,-3.67230036,122.64550281
94.70259668,26.35113254,-63.25459281,-174.92961632,-49.47524719,-3.09949746
17.01721836,0.63612002,-0.43558016,-0.44906015

>  <HEADER>
                                                                          

>  <MASTER>
        0    0    0    0    0    0    0    0   52    0   52    0          

>  <Name>
Camostat.pdb

>  <RI>
-1.18531e+09

>  <Rbt.Current_Directory>
/root/miniconda3/envs/rdock/share/rxdock-2013.1.1_148c5bd1-0/data/ligands/prepped_ligands/Camostat

>  <Rbt.Executable>
rbdock/0.1.0

>  <Rbt.Library>
librxdock.so/0.1.0

>  <Rbt.Parameter_File>
/root/miniconda3/envs/rdock/share/rxdock-2013.1.1_148c5bd1-0/data/scripts/dock.prm

>  <Rbt.Receptor>
def.prm

>  <SCORE>
-12.0065

>  <SCORE.INTER>
-9.35982

>  <SCORE.INTER.CONST>
1

>  <SCORE.INTER.POLAR>
-0.960704

>  <SCORE.INTER.REPUL>
0

>  <SCORE.INTER.ROT>
10

>  <SCORE.INTER.VDW>
-21.4934

>  <SCORE.INTER.norm>
-0.322752

>  <SCORE.INTRA>
-1.66229

>  <SCORE.INTRA.DIHEDRAL>
-7.82093

>  <SCORE.INTRA.DIHEDRAL.0>
23.8083

>  <SCORE.INTRA.POLAR>
0

>  <SCORE.INTRA.POLAR.0>
0

>  <SCORE.INTRA.REPUL>
0

>  <SCORE.INTRA.REPUL.0>
0

>  <SCORE.INTRA.VDW>
2.24817

>  <SCORE.INTRA.VDW.0>
-1.22275

>  <SCORE.INTRA.norm>
-0.0573205

>  <SCORE.RESTR>
0

>  <SCORE.RESTR.CAVITY>
0

>  <SCORE.RESTR.norm>
0

>  <SCORE.SYSTEM>
-0.984363

>  <SCORE.SYSTEM.CONST>
0

>  <SCORE.SYSTEM.DIHEDRAL>
0.148979

>  <SCORE.SYSTEM.POLAR>
-0.00791596

>  <SCORE.SYSTEM.VDW>
-1.03194

>  <SCORE.SYSTEM.norm>
-0.0339435

>  <SCORE.heavy>
29

>  <SCORE.norm>
-0.414016

>  <TITLE>
    5284360_D                                                             

$$$$
Camostat.pdb
  RxDock  02242101553D
librxdock.so/0.1.0
 34 35  0  0  0  0  0  0  0  0999 V2000
  -50.4492   -3.0292   19.9287 O   0  0  0  0  0  0
  -46.3742   -1.1851   15.5899 O   0  0  0  0  0  0
  -45.6151   -3.0673   14.6299 O   0  0  0  0  0  0
  -45.5834   -2.6141   17.7927 O   0  0  0  0  0  0
  -52.4489   -3.4134   20.9150 O   0  0  0  0  0  0
  -44.4939   -0.7471   18.5165 N   0  0  0  0  0  0
  -53.5206   -6.7499   15.6909 N   0  0  0  0  0  0
  -55.0256   -7.0261   13.9231 N   0  0  0  0  0  0
  -55.8425   -6.1984   15.9293 N   0  3  0  0  0  0
  -48.6788   -2.8086   16.2077 C   0  0  0  0  0  0
  -48.0178   -2.7090   14.8445 C   0  0  0  0  0  0
  -48.2872   -3.7833   17.0990 C   0  0  0  0  0  0
  -49.6672   -1.9149   16.5597 C   0  0  0  0  0  0
  -49.8711   -2.9692   18.6923 C   0  0  0  0  0  0
  -48.8784   -3.8652   18.3378 C   0  0  0  0  0  0
  -50.2620   -1.9923   17.7971 C   0  0  0  0  0  0
  -46.5495   -2.3752   14.9921 C   0  0  0  0  0  0
  -45.0874   -0.9360   16.1824 C   0  0  0  0  0  0
  -52.1278   -4.4020   18.8093 C   0  0  0  0  0  0
  -45.0807   -1.5200   17.5786 C   0  0  0  0  0  0
  -51.6896   -3.5762   19.9727 C   0  0  0  0  0  0
  -53.2996   -4.0307   18.0884 C   0  0  0  0  0  0
  -51.3925   -5.5587   18.4164 C   0  0  0  0  0  0
  -53.0435   -5.9994   16.6864 C   0  0  0  0  0  0
  -53.7440   -4.7742   17.0684 C   0  0  0  0  0  0
  -51.8100   -6.3289   17.4059 C   0  0  0  0  0  0
  -44.4359   -1.2099   19.9092 C   0  0  0  0  0  0
  -43.9194    0.5816   18.2333 C   0  0  0  0  0  0
  -54.8088   -6.6727   15.2029 C   0  0  0  0  0  0
  -52.9076   -7.4221   15.2750 H   0  0  0  0  0  0
  -54.2668   -7.3549   13.3599 H   0  0  0  0  0  0
  -55.9432   -6.9654   13.5303 H   0  0  0  0  0  0
  -56.1636   -5.2614   15.8022 H   0  0  0  0  0  0
  -56.3078   -6.7924   16.5860 H   0  0  0  0  0  0
  1 14  1  0  0  0
  1 21  1  0  0  0
  2 17  1  0  0  0
  2 18  1  0  0  0
  3 17  2  0  0  0
  4 20  2  0  0  0
  5 21  2  0  0  0
  6 20  1  0  0  0
  6 27  1  0  0  0
  6 28  1  0  0  0
  7 24  1  0  0  0
  7 29  1  0  0  0
  7 30  1  0  0  0
  8 29  2  0  0  0
  8 31  1  0  0  0
  8 32  1  0  0  0
  9 29  1  0  0  0
  9 33  1  0  0  0
  9 34  1  0  0  0
 10 11  1  0  0  0
 10 12  2  0  0  0
 10 13  1  0  0  0
 11 17  1  0  0  0
 12 15  1  0  0  0
 13 16  2  0  0  0
 14 15  2  0  0  0
 14 16  1  0  0  0
 18 20  1  0  0  0
 19 21  1  0  0  0
 19 22  2  0  0  0
 19 23  1  0  0  0
 22 25  1  0  0  0
 23 26  2  0  0  0
 24 25  2  0  0  0
 24 26  1  0  0  0
M  END
>  <CHROM.0>
-55.30555023,-66.64621614,176.75902661

>  <CHROM.1>
-103.64844140,-162.03770456,-19.73574056,-84.94236651,-17.86749150,99.67219223
-63.69471687,-61.78148920,41.76170501,-121.39135631,-49.60880487,-3.45961632
17.26141493,2.93920517,-0.44750501,-1.84510931

>  <HEADER>
                                                                          

>  <MASTER>
        0    0    0    0    0    0    0    0   52    0   52    0          

>  <Name>
Camostat.pdb

>  <RI>
-1.18531e+09

>  <Rbt.Current_Directory>
/root/miniconda3/envs/rdock/share/rxdock-2013.1.1_148c5bd1-0/data/ligands/prepped_ligands/Camostat

>  <Rbt.Executable>
rbdock/0.1.0

>  <Rbt.Library>
librxdock.so/0.1.0

>  <Rbt.Parameter_File>
/root/miniconda3/envs/rdock/share/rxdock-2013.1.1_148c5bd1-0/data/scripts/dock.prm

>  <Rbt.Receptor>
def.prm

>  <SCORE>
-11.8451

>  <SCORE.INTER>
-11.0353

>  <SCORE.INTER.CONST>
1

>  <SCORE.INTER.POLAR>
-2.2089

>  <SCORE.INTER.REPUL>
0.0329306

>  <SCORE.INTER.ROT>
10

>  <SCORE.INTER.VDW>
-19.0897

>  <SCORE.INTER.norm>
-0.380528

>  <SCORE.INTRA>
0.192929

>  <SCORE.INTRA.DIHEDRAL>
2.48162

>  <SCORE.INTRA.DIHEDRAL.0>
23.8083

>  <SCORE.INTRA.POLAR>
0

>  <SCORE.INTRA.POLAR.0>
0

>  <SCORE.INTRA.REPUL>
0

>  <SCORE.INTRA.REPUL.0>
0

>  <SCORE.INTRA.VDW>
-1.04788

>  <SCORE.INTRA.VDW.0>
-1.22275

>  <SCORE.INTRA.norm>
0.00665272

>  <SCORE.RESTR>
0

>  <SCORE.RESTR.CAVITY>
0

>  <SCORE.RESTR.norm>
0

>  <SCORE.SYSTEM>
-1.00272

>  <SCORE.SYSTEM.CONST>
0

>  <SCORE.SYSTEM.DIHEDRAL>
0.295141

>  <SCORE.SYSTEM.VDW>
-1.15029

>  <SCORE.SYSTEM.norm>
-0.0345764

>  <SCORE.heavy>
29

>  <SCORE.norm>
-0.408451

>  <TITLE>
    5284360_D                                                             

$$$$
Camostat.pdb
  RxDock  02242101553D
librxdock.so/0.1.0
 34 35  0  0  0  0  0  0  0  0999 V2000
  -49.2233    0.1030   16.2707 O   0  0  0  0  0  0
  -52.2535   -5.8506   16.9620 O   0  0  0  0  0  0
  -51.8342   -6.0070   14.7620 O   0  0  0  0  0  0
  -52.0266   -8.1886   19.1812 O   0  0  0  0  0  0
  -50.2403    1.0500   18.0560 O   0  0  0  0  0  0
  -50.6136   -6.4122   19.3908 N   0  0  0  0  0  0
  -44.2486    2.0215   19.8001 N   0  0  0  0  0  0
  -41.9137    2.0915   19.7037 N   0  0  0  0  0  0
  -42.9667    0.0996   19.1553 N   0  3  0  0  0  0
  -51.9929   -2.9209   15.8076 C   0  0  0  0  0  0
  -52.9962   -4.0466   15.6303 C   0  0  0  0  0  0
  -51.6505   -2.4893   17.0702 C   0  0  0  0  0  0
  -51.4144   -2.3348   14.7024 C   0  0  0  0  0  0
  -50.1518   -0.8880   16.1214 C   0  0  0  0  0  0
  -50.7329   -1.4777   17.2299 C   0  0  0  0  0  0
  -50.4964   -1.3227   14.8562 C   0  0  0  0  0  0
  -52.3024   -5.3892   15.7014 C   0  0  0  0  0  0
  -51.4383   -7.0114   17.2006 C   0  0  0  0  0  0
  -47.8928    1.0140   18.1024 C   0  0  0  0  0  0
  -51.3904   -7.2661   18.6917 C   0  0  0  0  0  0
  -49.2162    0.7265   17.4752 C   0  0  0  0  0  0
  -47.8383    1.7756   19.3056 C   0  0  0  0  0  0
  -46.6853    0.5417   17.5090 C   0  0  0  0  0  0
  -45.4109    1.6697   19.2458 C   0  0  0  0  0  0
  -46.6656    2.0882   19.8691 C   0  0  0  0  0  0
  -45.4949    0.8398   18.0409 C   0  0  0  0  0  0
  -50.4977   -6.5596   20.8475 C   0  0  0  0  0  0
  -49.8784   -5.2911   18.7758 C   0  0  0  0  0  0
  -43.0483    1.3813   19.5700 C   0  0  0  0  0  0
  -44.2464    2.7954   20.4338 H   0  0  0  0  0  0
  -41.9547    3.0511   19.9844 H   0  0  0  0  0  0
  -41.0265    1.6652   19.5271 H   0  0  0  0  0  0
  -43.7454   -0.5169   19.2584 H   0  0  0  0  0  0
  -42.1297   -0.2343   18.7213 H   0  0  0  0  0  0
  1 14  1  0  0  0
  1 21  1  0  0  0
  2 17  1  0  0  0
  2 18  1  0  0  0
  3 17  2  0  0  0
  4 20  2  0  0  0
  5 21  2  0  0  0
  6 20  1  0  0  0
  6 27  1  0  0  0
  6 28  1  0  0  0
  7 24  1  0  0  0
  7 29  1  0  0  0
  7 30  1  0  0  0
  8 29  2  0  0  0
  8 31  1  0  0  0
  8 32  1  0  0  0
  9 29  1  0  0  0
  9 33  1  0  0  0
  9 34  1  0  0  0
 10 11  1  0  0  0
 10 12  2  0  0  0
 10 13  1  0  0  0
 11 17  1  0  0  0
 12 15  1  0  0  0
 13 16  2  0  0  0
 14 15  2  0  0  0
 14 16  1  0  0  0
 18 20  1  0  0  0
 19 21  1  0  0  0
 19 22  2  0  0  0
 19 23  1  0  0  0
 22 25  1  0  0  0
 23 26  2  0  0  0
 24 25  2  0  0  0
 24 26  1  0  0  0
M  END
>  <CHROM.0>
59.01121311,63.79130037,175.51002083

>  <CHROM.1>
-19.15902930,-42.38088037,9.56153502,173.44509825,159.35327330,-18.47041521
-86.10729307,89.55937532,105.60212551,174.24357116,-49.03734509,-2.07982174
17.79093721,0.60508901,-0.60792039,-0.44864718

>  <HEADER>
                                                                          

>  <MASTER>
        0    0    0    0    0    0    0    0   52    0   52    0          

>  <Name>
Camostat.pdb

>  <RI>
-1.18531e+09

>  <Rbt.Current_Directory>
/root/miniconda3/envs/rdock/share/rxdock-2013.1.1_148c5bd1-0/data/ligands/prepped_ligands/Camostat

>  <Rbt.Executable>
rbdock/0.1.0

>  <Rbt.Library>
librxdock.so/0.1.0

>  <Rbt.Parameter_File>
/root/miniconda3/envs/rdock/share/rxdock-2013.1.1_148c5bd1-0/data/scripts/dock.prm

>  <Rbt.Receptor>
def.prm

>  <SCORE>
-5.3911

>  <SCORE.INTER>
-2.79267

>  <SCORE.INTER.CONST>
1

>  <SCORE.INTER.POLAR>
0

>  <SCORE.INTER.REPUL>
0.00065465

>  <SCORE.INTER.ROT>
10

>  <SCORE.INTER.VDW>
-18.1959

>  <SCORE.INTER.norm>
-0.0962991

>  <SCORE.INTRA>
-1.58485

>  <SCORE.INTRA.DIHEDRAL>
-6.44231

>  <SCORE.INTRA.DIHEDRAL.0>
23.8083

>  <SCORE.INTRA.POLAR>
0

>  <SCORE.INTRA.POLAR.0>
0

>  <SCORE.INTRA.REPUL>
0

>  <SCORE.INTRA.REPUL.0>
0

>  <SCORE.INTRA.VDW>
1.63631

>  <SCORE.INTRA.VDW.0>
-1.22275

>  <SCORE.INTRA.norm>
-0.0546498

>  <SCORE.RESTR>
0

>  <SCORE.RESTR.CAVITY>
0

>  <SCORE.RESTR.norm>
0

>  <SCORE.SYSTEM>
-1.01358

>  <SCORE.SYSTEM.CONST>
0

>  <SCORE.SYSTEM.DIHEDRAL>
0.127183

>  <SCORE.SYSTEM.VDW>
-1.07717

>  <SCORE.SYSTEM.norm>
-0.034951

>  <SCORE.heavy>
29

>  <SCORE.norm>
-0.1859

>  <TITLE>
    5284360_D                                                             

$$$$
Camostat.pdb
  RxDock  02242101553D
librxdock.so/0.1.0
 34 35  0  0  0  0  0  0  0  0999 V2000
  -52.9818   -4.0232   16.7884 O   0  0  0  0  0  0
  -47.7527   -0.5534   19.9772 O   0  0  0  0  0  0
  -48.8374    0.7527   18.5082 O   0  0  0  0  0  0
  -47.2739   -2.0740   17.9126 O   0  0  0  0  0  0
  -53.3236   -4.4942   14.6021 O   0  0  0  0  0  0
  -45.1837   -1.2531   17.5204 N   0  0  0  0  0  0
  -48.1457   -0.9982   13.8455 N   0  0  0  0  0  0
  -45.9638   -0.2388   14.2048 N   0  0  0  0  0  0
  -47.4867   -0.0370   15.9418 N   0  3  0  0  0  0
  -50.8942   -1.4583   19.2568 C   0  0  0  0  0  0
  -50.1079   -0.5204   20.1553 C   0  0  0  0  0  0
  -51.7346   -0.9508   18.2903 C   0  0  0  0  0  0
  -50.7601   -2.8224   19.4010 C   0  0  0  0  0  0
  -52.3042   -3.1706   17.6134 C   0  0  0  0  0  0
  -52.4374   -1.8011   17.4694 C   0  0  0  0  0  0
  -51.4606   -3.6773   18.5830 C   0  0  0  0  0  0
  -48.8671   -0.0248   19.4452 C   0  0  0  0  0  0
  -46.5153   -0.2917   19.2920 C   0  0  0  0  0  0
  -51.4744   -3.1314   15.0891 C   0  0  0  0  0  0
  -46.3651   -1.2976   18.1713 C   0  0  0  0  0  0
  -52.6684   -3.9410   15.4713 C   0  0  0  0  0  0
  -51.5480   -2.2639   13.9609 C   0  0  0  0  0  0
  -50.2622   -3.2209   15.8345 C   0  0  0  0  0  0
  -49.2096   -1.6805   14.2750 C   0  0  0  0  0  0
  -50.4822   -1.5580   13.5655 C   0  0  0  0  0  0
  -49.1751   -2.5349   15.4652 C   0  0  0  0  0  0
  -44.9238   -2.1888   16.4186 C   0  0  0  0  0  0
  -44.0949   -0.3226   17.8728 C   0  0  0  0  0  0
  -47.2151   -0.4018   14.6712 C   0  0  0  0  0  0
  -48.0172   -0.9025   12.8582 H   0  0  0  0  0  0
  -45.7356   -0.5275   13.2743 H   0  0  0  0  0  0
  -45.2586    0.1729   14.7820 H   0  0  0  0  0  0
  -46.8636    0.5625   16.4412 H   0  0  0  0  0  0
  -48.3278   -0.3494   16.3839 H   0  0  0  0  0  0
  1 14  1  0  0  0
  1 21  1  0  0  0
  2 17  1  0  0  0
  2 18  1  0  0  0
  3 17  2  0  0  0
  4 20  2  0  0  0
  5 21  2  0  0  0
  6 20  1  0  0  0
  6 27  1  0  0  0
  6 28  1  0  0  0
  7 24  1  0  0  0
  7 29  1  0  0  0
  7 30  1  0  0  0
  8 29  2  0  0  0
  8 31  1  0  0  0
  8 32  1  0  0  0
  9 29  1  0  0  0
  9 33  1  0  0  0
  9 34  1  0  0  0
 10 11  1  0  0  0
 10 12  2  0  0  0
 10 13  1  0  0  0
 11 17  1  0  0  0
 12 15  1  0  0  0
 13 16  2  0  0  0
 14 15  2  0  0  0
 14 16  1  0  0  0
 18 20  1  0  0  0
 19 21  1  0  0  0
 19 22  2  0  0  0
 19 23  1  0  0  0
 22 25  1  0  0  0
 23 26  2  0  0  0
 24 25  2  0  0  0
 24 26  1  0  0  0
M  END
>  <CHROM.0>
61.33298989,-179.54818147,-55.11941902

>  <CHROM.1>
62.47333457,-169.00871339,-7.32813843,-83.67112549,141.56963098,-166.72988231
-81.07367003,-109.64882323,6.01335372,-137.11834329,-49.19746544,-1.69854319
16.88590037,2.88612331,-0.36180136,-1.74141193

>  <HEADER>
                                                                          

>  <MASTER>
        0    0    0    0    0    0    0    0   52    0   52    0          

>  <Name>
Camostat.pdb

>  <RI>
-1.18531e+09

>  <Rbt.Current_Directory>
/root/miniconda3/envs/rdock/share/rxdock-2013.1.1_148c5bd1-0/data/ligands/prepped_ligands/Camostat

>  <Rbt.Executable>
rbdock/0.1.0

>  <Rbt.Library>
librxdock.so/0.1.0

>  <Rbt.Parameter_File>
/root/miniconda3/envs/rdock/share/rxdock-2013.1.1_148c5bd1-0/data/scripts/dock.prm

>  <Rbt.Receptor>
def.prm

>  <SCORE>
-9.7743

>  <SCORE.INTER>
-6.48834

>  <SCORE.INTER.CONST>
1

>  <SCORE.INTER.POLAR>
-0.9729

>  <SCORE.INTER.REPUL>
0

>  <SCORE.INTER.ROT>
10

>  <SCORE.INTER.VDW>
-18.5805

>  <SCORE.INTER.norm>
-0.223736

>  <SCORE.INTRA>
-2.37858

>  <SCORE.INTRA.DIHEDRAL>
-1.86768

>  <SCORE.INTRA.DIHEDRAL.0>
23.8083

>  <SCORE.INTRA.POLAR>
0

>  <SCORE.INTRA.POLAR.0>
0

>  <SCORE.INTRA.REPUL>
0.000206647

>  <SCORE.INTRA.REPUL.0>
0

>  <SCORE.INTRA.VDW>
-1.44577

>  <SCORE.INTRA.VDW.0>
-1.22275

>  <SCORE.INTRA.norm>
-0.0820199

>  <SCORE.RESTR>
0.117191

>  <SCORE.RESTR.CAVITY>
0.117191

>  <SCORE.RESTR.norm>
0.00404108

>  <SCORE.SYSTEM>
-1.02458

>  <SCORE.SYSTEM.CONST>
0

>  <SCORE.SYSTEM.DIHEDRAL>
0.0591196

>  <SCORE.SYSTEM.POLAR>
-0.0112422

>  <SCORE.SYSTEM.VDW>
-1.01592

>  <SCORE.SYSTEM.norm>
-0.0353303

>  <SCORE.heavy>
29

>  <SCORE.norm>
-0.337045

>  <TITLE>
    5284360_D                                                             

$$$$
Camostat.pdb
  RxDock  02242101563D
librxdock.so/0.1.0
 34 35  0  0  0  0  0  0  0  0999 V2000
  -50.9611   -1.4998   16.3490 O   0  0  0  0  0  0
  -43.9470   -0.5617   17.3483 O   0  0  0  0  0  0
  -44.4994   -2.3076   16.0494 O   0  0  0  0  0  0
  -41.4506   -0.0767   19.0398 O   0  0  0  0  0  0
  -51.5881   -1.7022   14.1846 O   0  0  0  0  0  0
  -43.1880   -0.5089   20.4508 N   0  0  0  0  0  0
  -53.6380   -7.2879   16.3457 N   0  0  0  0  0  0
  -54.6628   -9.2491   15.5910 N   0  0  0  0  0  0
  -55.6006   -7.2217   14.9687 N   0  3  0  0  0  0
  -46.9860   -0.5160   15.8392 C   0  0  0  0  0  0
  -45.5292   -0.1337   15.6474 C   0  0  0  0  0  0
  -47.4607   -0.8334   17.0928 C   0  0  0  0  0  0
  -47.8399   -0.5362   14.7575 C   0  0  0  0  0  0
  -49.6411   -1.1894   16.1823 C   0  0  0  0  0  0
  -48.7829   -1.1681   17.2672 C   0  0  0  0  0  0
  -49.1630   -0.8704   14.9260 C   0  0  0  0  0  0
  -44.6256   -1.1312   16.3386 C   0  0  0  0  0  0
  -43.2182   -1.4414   18.2224 C   0  0  0  0  0  0
  -52.1518   -3.4924   15.5959 C   0  0  0  0  0  0
  -42.5274   -0.6052   19.2779 C   0  0  0  0  0  0
  -51.5462   -2.1572   15.3169 C   0  0  0  0  0  0
  -51.7805   -4.1969   16.7776 C   0  0  0  0  0  0
  -53.0903   -4.0719   14.6924 C   0  0  0  0  0  0
  -53.1864   -6.0574   16.0928 C   0  0  0  0  0  0
  -52.2714   -5.4148   17.0350 C   0  0  0  0  0  0
  -53.5969   -5.2897   14.9140 C   0  0  0  0  0  0
  -42.6080    0.2720   21.5512 C   0  0  0  0  0  0
  -44.4739   -1.1803   20.7181 C   0  0  0  0  0  0
  -54.6556   -7.9051   15.6478 C   0  0  0  0  0  0
  -53.2187   -7.7958   17.0985 H   0  0  0  0  0  0
  -53.9549   -9.7734   16.0657 H   0  0  0  0  0  0
  -55.3745   -9.7298   15.0788 H   0  0  0  0  0  0
  -56.1815   -6.5584   15.4375 H   0  0  0  0  0  0
  -55.7098   -7.3612   13.9843 H   0  0  0  0  0  0
  1 14  1  0  0  0
  1 21  1  0  0  0
  2 17  1  0  0  0
  2 18  1  0  0  0
  3 17  2  0  0  0
  4 20  2  0  0  0
  5 21  2  0  0  0
  6 20  1  0  0  0
  6 27  1  0  0  0
  6 28  1  0  0  0
  7 24  1  0  0  0
  7 29  1  0  0  0
  7 30  1  0  0  0
  8 29  2  0  0  0
  8 31  1  0  0  0
  8 32  1  0  0  0
  9 29  1  0  0  0
  9 33  1  0  0  0
  9 34  1  0  0  0
 10 11  1  0  0  0
 10 12  2  0  0  0
 10 13  1  0  0  0
 11 17  1  0  0  0
 12 15  1  0  0  0
 13 16  2  0  0  0
 14 15  2  0  0  0
 14 16  1  0  0  0
 18 20  1  0  0  0
 19 21  1  0  0  0
 19 22  2  0  0  0
 19 23  1  0  0  0
 22 25  1  0  0  0
 23 26  2  0  0  0
 24 25  2  0  0  0
 24 26  1  0  0  0
M  END
>  <CHROM.0>
-172.55441287,-178.84575811,51.24123275

>  <CHROM.1>
-147.06288326,-58.26217454,-9.73592123,179.79743538,169.35405213,-58.09988318
48.37374904,-115.01561408,-83.22407579,-17.88895149,-48.71488873,-2.71352640
16.73440285,2.94130802,0.52986892,2.46668404

>  <HEADER>
                                                                          

>  <MASTER>
        0    0    0    0    0    0    0    0   52    0   52    0          

>  <Name>
Camostat.pdb

>  <RI>
-1.18531e+09

>  <Rbt.Current_Directory>
/root/miniconda3/envs/rdock/share/rxdock-2013.1.1_148c5bd1-0/data/ligands/prepped_ligands/Camostat

>  <Rbt.Executable>
rbdock/0.1.0

>  <Rbt.Library>
librxdock.so/0.1.0

>  <Rbt.Parameter_File>
/root/miniconda3/envs/rdock/share/rxdock-2013.1.1_148c5bd1-0/data/scripts/dock.prm

>  <Rbt.Receptor>
def.prm

>  <SCORE>
-7.38106

>  <SCORE.INTER>
-8.4553

>  <SCORE.INTER.CONST>
1

>  <SCORE.INTER.POLAR>
0

>  <SCORE.INTER.REPUL>
0.189831

>  <SCORE.INTER.ROT>
10

>  <SCORE.INTER.VDW>
-24.8045

>  <SCORE.INTER.norm>
-0.291562

>  <SCORE.INTRA>
1.97426

>  <SCORE.INTRA.DIHEDRAL>
0.589558

>  <SCORE.INTRA.DIHEDRAL.0>
23.8083

>  <SCORE.INTRA.POLAR>
0

>  <SCORE.INTRA.POLAR.0>
0

>  <SCORE.INTRA.REPUL>
0

>  <SCORE.INTRA.REPUL.0>
0

>  <SCORE.INTRA.VDW>
1.67948

>  <SCORE.INTRA.VDW.0>
-1.22275

>  <SCORE.INTRA.norm>
0.0680778

>  <SCORE.RESTR>
0

>  <SCORE.RESTR.CAVITY>
0

>  <SCORE.RESTR.norm>
0

>  <SCORE.SYSTEM>
-0.900015

>  <SCORE.SYSTEM.CONST>
0

>  <SCORE.SYSTEM.DIHEDRAL>
0.329342

>  <SCORE.SYSTEM.VDW>
-1.06469

>  <SCORE.SYSTEM.norm>
-0.031035

>  <SCORE.heavy>
29

>  <SCORE.norm>
-0.254519

>  <TITLE>
    5284360_D                                                             

$$$$
