Camostat.pdb
  RxDock  02242112503D
librxdock.so/0.1.0
 34 35  0  0  0  0  0  0  0  0999 V2000
  -53.5922   -4.3991   14.5156 O   0  0  0  0  0  0
  -47.8135   -0.6582   17.4721 O   0  0  0  0  0  0
  -48.7932   -2.6032   18.0176 O   0  0  0  0  0  0
  -45.0076    0.0886   16.5105 O   0  0  0  0  0  0
  -54.8538   -6.2102   15.0129 O   0  0  0  0  0  0
  -45.1251    0.4848   18.7523 N   0  0  0  0  0  0
  -49.7855   -7.5238   18.5693 N   0  0  0  0  0  0
  -47.5728   -7.5022   19.3241 N   0  0  0  0  0  0
  -47.9423   -7.6288   17.0383 N   0  3  0  0  0  0
  -51.0683   -1.7626   16.4413 C   0  0  0  0  0  0
  -50.1491   -0.7763   17.1395 C   0  0  0  0  0  0
  -52.0456   -2.4233   17.1528 C   0  0  0  0  0  0
  -50.9319   -1.9913   15.0890 C   0  0  0  0  0  0
  -52.7490   -3.5386   15.1599 C   0  0  0  0  0  0
  -52.8851   -3.3076   16.5172 C   0  0  0  0  0  0
  -51.7685   -2.8747   14.4484 C   0  0  0  0  0  0
  -48.8805   -1.4653   17.5923 C   0  0  0  0  0  0
  -46.5284   -1.2254   17.7816 C   0  0  0  0  0  0
  -52.7265   -6.1285   16.0040 C   0  0  0  0  0  0
  -45.4764   -0.1503   17.6145 C   0  0  0  0  0  0
  -53.8135   -5.5834   15.1388 C   0  0  0  0  0  0
  -53.0620   -6.9718   17.1027 C   0  0  0  0  0  0
  -51.3604   -5.8106   15.7478 C   0  0  0  0  0  0
  -50.7136   -7.0779   17.7197 C   0  0  0  0  0  0
  -52.1152   -7.4410   17.9236 C   0  0  0  0  0  0
  -50.3880   -6.2565   16.5505 C   0  0  0  0  0  0
  -44.1068    1.5423   18.7112 C   0  0  0  0  0  0
  -45.6890    0.1562   20.0751 C   0  0  0  0  0  0
  -48.4346   -7.5752   18.2937 C   0  0  0  0  0  0
  -50.0882   -7.8531   19.4640 H   0  0  0  0  0  0
  -47.9181   -7.4349   20.2608 H   0  0  0  0  0  0
  -46.5864   -7.5180   19.1603 H   0  0  0  0  0  0
  -47.9331   -6.8131   16.4623 H   0  0  0  0  0  0
  -47.5631   -8.4842   16.6848 H   0  0  0  0  0  0
  1 14  1  0  0  0
  1 21  1  0  0  0
  2 17  1  0  0  0
  2 18  1  0  0  0
  3 17  2  0  0  0
  4 20  2  0  0  0
  5 21  2  0  0  0
  6 20  1  0  0  0
  6 27  1  0  0  0
  6 28  1  0  0  0
  7 24  1  0  0  0
  7 29  1  0  0  0
  7 30  1  0  0  0
  8 29  2  0  0  0
  8 31  1  0  0  0
  8 32  1  0  0  0
  9 29  1  0  0  0
  9 33  1  0  0  0
  9 34  1  0  0  0
 10 11  1  0  0  0
 10 12  2  0  0  0
 10 13  1  0  0  0
 11 17  1  0  0  0
 12 15  1  0  0  0
 13 16  2  0  0  0
 14 15  2  0  0  0
 14 16  1  0  0  0
 18 20  1  0  0  0
 19 21  1  0  0  0
 19 22  2  0  0  0
 19 23  1  0  0  0
 22 25  1  0  0  0
 23 26  2  0  0  0
 24 25  2  0  0  0
 24 26  1  0  0  0
M  END
>  <CHROM.0>
-59.40774760,179.62916806,59.97600799

>  <CHROM.1>
-45.82371655,151.02841849,4.25170176,-178.71553487,160.94400050,75.37543984
93.25361712,143.64861022,-83.76616152,151.97623803,-49.73148797,-3.64129488
17.05109457,2.50867585,0.46099532,2.91336285

>  <HEADER>
                                                                          

>  <MASTER>
        0    0    0    0    0    0    0    0   52    0   52    0          

>  <Name>
Camostat.pdb

>  <RI>
-1.0852e+09

>  <Rbt.Current_Directory>
/root/miniconda3/envs/rdock/share/rxdock-2013.1.1_148c5bd1-0/data/ligands/prepped_ligands/Camostat

>  <Rbt.Executable>
rbdock/0.1.0

>  <Rbt.Library>
librxdock.so/0.1.0

>  <Rbt.Parameter_File>
/root/miniconda3/envs/rdock/share/rxdock-2013.1.1_148c5bd1-0/data/scripts/dock.prm

>  <Rbt.Receptor>
def.prm

>  <SCORE>
-12.7091

>  <SCORE.INTER>
-9.62074

>  <SCORE.INTER.CONST>
1

>  <SCORE.INTER.POLAR>
-1.1726

>  <SCORE.INTER.REPUL>
0

>  <SCORE.INTER.ROT>
10

>  <SCORE.INTER.VDW>
-21.0339

>  <SCORE.INTER.norm>
-0.33175

>  <SCORE.INTRA>
-2.02351

>  <SCORE.INTRA.DIHEDRAL>
-7.86411

>  <SCORE.INTRA.DIHEDRAL.0>
23.8083

>  <SCORE.INTRA.POLAR>
0

>  <SCORE.INTRA.POLAR.0>
0

>  <SCORE.INTRA.REPUL>
0

>  <SCORE.INTRA.REPUL.0>
0

>  <SCORE.INTRA.VDW>
1.90855

>  <SCORE.INTRA.VDW.0>
-1.22275

>  <SCORE.INTRA.norm>
-0.0697761

>  <SCORE.RESTR>
0

>  <SCORE.RESTR.CAVITY>
0

>  <SCORE.RESTR.norm>
0

>  <SCORE.SYSTEM>
-1.06489

>  <SCORE.SYSTEM.CONST>
0

>  <SCORE.SYSTEM.DIHEDRAL>
0.00132829

>  <SCORE.SYSTEM.POLAR>
-0.000997664

>  <SCORE.SYSTEM.VDW>
-1.06216

>  <SCORE.SYSTEM.norm>
-0.0367204

>  <SCORE.heavy>
29

>  <SCORE.norm>
-0.438246

>  <TITLE>
    5284360_D                                                             

$$$$
Camostat.pdb
  RxDock  02242112503D
librxdock.so/0.1.0
 34 35  0  0  0  0  0  0  0  0999 V2000
  -49.4785    0.0688   14.1906 O   0  0  0  0  0  0
  -50.2048   -5.2661   18.7557 O   0  0  0  0  0  0
  -49.0519   -3.5716   19.6722 O   0  0  0  0  0  0
  -50.6623   -7.8292   18.6490 O   0  0  0  0  0  0
  -47.9584    0.0111   12.5158 O   0  0  0  0  0  0
  -48.4681   -8.4432   18.5761 N   0  0  0  0  0  0
  -44.2202   -2.1842   17.0862 N   0  0  0  0  0  0
  -43.0588   -2.0346   19.1098 N   0  0  0  0  0  0
  -43.5538   -0.0650   17.9905 N   0  3  0  0  0  0
  -50.6964   -2.2701   17.3648 C   0  0  0  0  0  0
  -51.1613   -3.1176   18.5356 C   0  0  0  0  0  0
  -50.7719   -2.7611   16.0799 C   0  0  0  0  0  0
  -50.2062   -1.0011   17.5861 C   0  0  0  0  0  0
  -49.8686   -0.7145   15.2398 C   0  0  0  0  0  0
  -50.3614   -1.9882   15.0192 C   0  0  0  0  0  0
  -49.7941   -0.2240   16.5292 C   0  0  0  0  0  0
  -50.0243   -3.9694   19.0561 C   0  0  0  0  0  0
  -49.0326   -6.0994   18.7316 C   0  0  0  0  0  0
  -47.2205   -0.7572   14.6086 C   0  0  0  0  0  0
  -49.4729   -7.5449   18.6475 C   0  0  0  0  0  0
  -48.2486   -0.1961   13.6836 C   0  0  0  0  0  0
  -46.6372    0.0834   15.6005 C   0  0  0  0  0  0
  -46.8121   -2.1195   14.5067 C   0  0  0  0  0  0
  -45.2004   -1.7516   16.2899 C   0  0  0  0  0  0
  -45.6813   -0.3767   16.4161 C   0  0  0  0  0  0
  -45.8554   -2.6121   15.3009 C   0  0  0  0  0  0
  -48.7775   -9.8768   18.4982 C   0  0  0  0  0  0
  -47.0409   -8.0718   18.6034 C   0  0  0  0  0  0
  -43.5942   -1.4129   18.0438 C   0  0  0  0  0  0
  -43.9093   -3.1286   16.9768 H   0  0  0  0  0  0
  -43.1022   -3.0317   19.1810 H   0  0  0  0  0  0
  -42.6135   -1.5060   19.8325 H   0  0  0  0  0  0
  -43.6532    0.4782   18.8224 H   0  0  0  0  0  0
  -43.4020    0.3976   17.1167 H   0  0  0  0  0  0
  1 14  1  0  0  0
  1 21  1  0  0  0
  2 17  1  0  0  0
  2 18  1  0  0  0
  3 17  2  0  0  0
  4 20  2  0  0  0
  5 21  2  0  0  0
  6 20  1  0  0  0
  6 27  1  0  0  0
  6 28  1  0  0  0
  7 24  1  0  0  0
  7 29  1  0  0  0
  7 30  1  0  0  0
  8 29  2  0  0  0
  8 31  1  0  0  0
  8 32  1  0  0  0
  9 29  1  0  0  0
  9 33  1  0  0  0
  9 34  1  0  0  0
 10 11  1  0  0  0
 10 12  2  0  0  0
 10 13  1  0  0  0
 11 17  1  0  0  0
 12 15  1  0  0  0
 13 16  2  0  0  0
 14 15  2  0  0  0
 14 16  1  0  0  0
 18 20  1  0  0  0
 19 21  1  0  0  0
 19 22  2  0  0  0
 19 23  1  0  0  0
 22 25  1  0  0  0
 23 26  2  0  0  0
 24 25  2  0  0  0
 24 26  1  0  0  0
M  END
>  <CHROM.0>
-175.90588218,-68.74721871,-81.06101360

>  <CHROM.1>
-79.87730617,151.32461604,-22.38237691,169.00843299,-0.56606932,140.89763893
88.97118824,-108.71551936,-1.99764288,-72.35821160,-48.00981519,-3.04545732
16.98296620,1.22777478,-0.22029572,-0.52631012

>  <HEADER>
                                                                          

>  <MASTER>
        0    0    0    0    0    0    0    0   52    0   52    0          

>  <Name>
Camostat.pdb

>  <RI>
-1.0852e+09

>  <Rbt.Current_Directory>
/root/miniconda3/envs/rdock/share/rxdock-2013.1.1_148c5bd1-0/data/ligands/prepped_ligands/Camostat

>  <Rbt.Executable>
rbdock/0.1.0

>  <Rbt.Library>
librxdock.so/0.1.0

>  <Rbt.Parameter_File>
/root/miniconda3/envs/rdock/share/rxdock-2013.1.1_148c5bd1-0/data/scripts/dock.prm

>  <Rbt.Receptor>
def.prm

>  <SCORE>
-3.36355

>  <SCORE.INTER>
-5.68516

>  <SCORE.INTER.CONST>
1

>  <SCORE.INTER.POLAR>
-0.612236

>  <SCORE.INTER.REPUL>
0.00283488

>  <SCORE.INTER.ROT>
10

>  <SCORE.INTER.VDW>
-19.0177

>  <SCORE.INTER.norm>
-0.19604

>  <SCORE.INTRA>
2.69442

>  <SCORE.INTRA.DIHEDRAL>
5.65246

>  <SCORE.INTRA.DIHEDRAL.0>
23.8083

>  <SCORE.INTRA.POLAR>
0

>  <SCORE.INTRA.POLAR.0>
0

>  <SCORE.INTRA.REPUL>
0

>  <SCORE.INTRA.REPUL.0>
0

>  <SCORE.INTRA.VDW>
-0.13181

>  <SCORE.INTRA.VDW.0>
-1.22275

>  <SCORE.INTRA.norm>
0.092911

>  <SCORE.RESTR>
0

>  <SCORE.RESTR.CAVITY>
0

>  <SCORE.RESTR.norm>
0

>  <SCORE.SYSTEM>
-0.372813

>  <SCORE.SYSTEM.CONST>
0

>  <SCORE.SYSTEM.DIHEDRAL>
1.41121

>  <SCORE.SYSTEM.VDW>
-1.07842

>  <SCORE.SYSTEM.norm>
-0.0128556

>  <SCORE.heavy>
29

>  <SCORE.norm>
-0.115985

>  <TITLE>
    5284360_D                                                             

$$$$
Camostat.pdb
  RxDock  02242112503D
librxdock.so/0.1.0
 34 35  0  0  0  0  0  0  0  0999 V2000
  -47.8586   -4.2571   16.6428 O   0  0  0  0  0  0
  -44.7485    1.3457   19.6545 O   0  0  0  0  0  0
  -43.4323   -0.4706   19.5584 O   0  0  0  0  0  0
  -44.5757   -0.7126   22.2017 O   0  0  0  0  0  0
  -49.7552   -4.9545   15.6252 O   0  0  0  0  0  0
  -46.5957    0.1317   21.5668 N   0  0  0  0  0  0
  -49.6986    0.8621   13.2302 N   0  0  0  0  0  0
  -49.7309    2.1023   11.2486 N   0  0  0  0  0  0
  -47.8857    0.7604   11.6633 N   0  3  0  0  0  0
  -45.4874   -0.9435   17.2957 C   0  0  0  0  0  0
  -44.6120    0.2693   17.5563 C   0  0  0  0  0  0
  -45.0439   -1.9552   16.4726 C   0  0  0  0  0  0
  -46.7263   -1.0384   17.8922 C   0  0  0  0  0  0
  -47.0768   -3.1550   16.8442 C   0  0  0  0  0  0
  -45.8328   -3.0586   16.2466 C   0  0  0  0  0  0
  -47.5194   -2.1394   17.6696 C   0  0  0  0  0  0
  -44.1858    0.3117   19.0074 C   0  0  0  0  0  0
  -44.5883    1.3860   21.0834 C   0  0  0  0  0  0
  -49.0893   -2.7490   15.1710 C   0  0  0  0  0  0
  -45.2508    0.1607   21.6754 C   0  0  0  0  0  0
  -48.9291   -4.0788   15.8292 C   0  0  0  0  0  0
  -50.2698   -1.9870   15.4092 C   0  0  0  0  0  0
  -48.0798   -2.2368   14.3040 C   0  0  0  0  0  0
  -49.4728   -0.2943   13.8579 C   0  0  0  0  0  0
  -50.4640   -0.8115   14.8002 C   0  0  0  0  0  0
  -48.2423   -1.0686   13.6735 C   0  0  0  0  0  0
  -47.3446   -1.0137   22.0999 C   0  0  0  0  0  0
  -47.3815    1.1883   20.9021 C   0  0  0  0  0  0
  -49.0797    1.2489   12.0594 C   0  0  0  0  0  0
  -50.3534    1.4978   13.6397 H   0  0  0  0  0  0
  -50.6295    2.4549   11.5120 H   0  0  0  0  0  0
  -49.3207    2.3900   10.3832 H   0  0  0  0  0  0
  -47.0626    1.3225   11.7246 H   0  0  0  0  0  0
  -47.8156   -0.1783   11.3250 H   0  0  0  0  0  0
  1 14  1  0  0  0
  1 21  1  0  0  0
  2 17  1  0  0  0
  2 18  1  0  0  0
  3 17  2  0  0  0
  4 20  2  0  0  0
  5 21  2  0  0  0
  6 20  1  0  0  0
  6 27  1  0  0  0
  6 28  1  0  0  0
  7 24  1  0  0  0
  7 29  1  0  0  0
  7 30  1  0  0  0
  8 29  2  0  0  0
  8 31  1  0  0  0
  8 32  1  0  0  0
  9 29  1  0  0  0
  9 33  1  0  0  0
  9 34  1  0  0  0
 10 11  1  0  0  0
 10 12  2  0  0  0
 10 13  1  0  0  0
 11 17  1  0  0  0
 12 15  1  0  0  0
 13 16  2  0  0  0
 14 15  2  0  0  0
 14 16  1  0  0  0
 18 20  1  0  0  0
 19 21  1  0  0  0
 19 22  2  0  0  0
 19 23  1  0  0  0
 22 25  1  0  0  0
 23 26  2  0  0  0
 24 25  2  0  0  0
 24 26  1  0  0  0
M  END
>  <CHROM.0>
55.71534512,-60.97640628,59.16568377

>  <CHROM.1>
-106.56118759,-175.55003435,-9.09249042,-62.12538723,-159.29204286,-105.99802474
-113.82793895,-112.11337636,112.16354166,-120.81177179,-47.18500378,-0.89523621
16.98325352,2.66565179,-1.01522049,-0.63362625

>  <HEADER>
                                                                          

>  <MASTER>
        0    0    0    0    0    0    0    0   52    0   52    0          

>  <Name>
Camostat.pdb

>  <RI>
-1.0852e+09

>  <Rbt.Current_Directory>
/root/miniconda3/envs/rdock/share/rxdock-2013.1.1_148c5bd1-0/data/ligands/prepped_ligands/Camostat

>  <Rbt.Executable>
rbdock/0.1.0

>  <Rbt.Library>
librxdock.so/0.1.0

>  <Rbt.Parameter_File>
/root/miniconda3/envs/rdock/share/rxdock-2013.1.1_148c5bd1-0/data/scripts/dock.prm

>  <Rbt.Receptor>
def.prm

>  <SCORE>
-12.0886

>  <SCORE.INTER>
-9.25528

>  <SCORE.INTER.CONST>
1

>  <SCORE.INTER.POLAR>
-0.860959

>  <SCORE.INTER.REPUL>
0.0469309

>  <SCORE.INTER.ROT>
10

>  <SCORE.INTER.VDW>
-21.9627

>  <SCORE.INTER.norm>
-0.319148

>  <SCORE.INTRA>
-1.8106

>  <SCORE.INTRA.DIHEDRAL>
-3.53856

>  <SCORE.INTRA.DIHEDRAL.0>
23.8083

>  <SCORE.INTRA.POLAR>
0

>  <SCORE.INTRA.POLAR.0>
0

>  <SCORE.INTRA.REPUL>
0

>  <SCORE.INTRA.REPUL.0>
0

>  <SCORE.INTRA.VDW>
-0.0413166

>  <SCORE.INTRA.VDW.0>
-1.22275

>  <SCORE.INTRA.norm>
-0.0624344

>  <SCORE.RESTR>
0

>  <SCORE.RESTR.CAVITY>
0

>  <SCORE.RESTR.norm>
0

>  <SCORE.SYSTEM>
-1.02268

>  <SCORE.SYSTEM.CONST>
0

>  <SCORE.SYSTEM.DIHEDRAL>
0.0555479

>  <SCORE.SYSTEM.VDW>
-1.05045

>  <SCORE.SYSTEM.norm>
-0.0352647

>  <SCORE.heavy>
29

>  <SCORE.norm>
-0.416847

>  <TITLE>
    5284360_D                                                             

$$$$
Camostat.pdb
  RxDock  02242112503D
librxdock.so/0.1.0
 34 35  0  0  0  0  0  0  0  0999 V2000
  -50.7504    0.6374   17.2903 O   0  0  0  0  0  0
  -49.7445   -5.4528   17.8809 O   0  0  0  0  0  0
  -50.2463   -6.3954   15.9060 O   0  0  0  0  0  0
  -48.9714   -8.5097   17.3321 O   0  0  0  0  0  0
  -49.4464    1.9017   18.6393 O   0  0  0  0  0  0
  -49.2750   -7.9480   19.5204 N   0  0  0  0  0  0
  -44.9861   -2.1109   16.7178 N   0  0  0  0  0  0
  -42.9581   -3.0133   17.4520 N   0  0  0  0  0  0
  -43.4674   -0.8363   18.0674 N   0  3  0  0  0  0
  -51.5671   -3.4008   17.0561 C   0  0  0  0  0  0
  -51.8473   -4.8902   16.9638 C   0  0  0  0  0  0
  -51.5307   -2.7766   18.2836 C   0  0  0  0  0  0
  -51.3385   -2.6716   15.9091 C   0  0  0  0  0  0
  -51.0361   -0.6965   17.2162 C   0  0  0  0  0  0
  -51.2653   -1.4299   18.3668 C   0  0  0  0  0  0
  -51.0728   -1.3247   15.9864 C   0  0  0  0  0  0
  -50.5540   -5.6640   16.8300 C   0  0  0  0  0  0
  -48.5522   -6.2539   17.9572 C   0  0  0  0  0  0
  -48.3881    0.0957   17.5750 C   0  0  0  0  0  0
  -48.9535   -7.6863   18.2361 C   0  0  0  0  0  0
  -49.5701    0.9548   17.8783 C   0  0  0  0  0  0
  -47.3078    0.0374   18.5026 C   0  0  0  0  0  0
  -48.3251   -0.6602   16.3677 C   0  0  0  0  0  0
  -46.0988   -1.4218   16.9808 C   0  0  0  0  0  0
  -46.2146   -0.6882   18.2403 C   0  0  0  0  0  0
  -47.2460   -1.3918   16.0694 C   0  0  0  0  0  0
  -49.6871   -9.3040   19.9059 C   0  0  0  0  0  0
  -49.2700   -6.9271   20.5850 C   0  0  0  0  0  0
  -43.7959   -1.9621   17.3995 C   0  0  0  0  0  0
  -45.0110   -2.7740   15.9693 H   0  0  0  0  0  0
  -43.1961   -3.8660   16.9856 H   0  0  0  0  0  0
  -42.0950   -2.9475   17.9527 H   0  0  0  0  0  0
  -43.0492   -0.8879   18.9727 H   0  0  0  0  0  0
  -43.6222    0.0585   17.6479 H   0  0  0  0  0  0
  1 14  1  0  0  0
  1 21  1  0  0  0
  2 17  1  0  0  0
  2 18  1  0  0  0
  3 17  2  0  0  0
  4 20  2  0  0  0
  5 21  2  0  0  0
  6 20  1  0  0  0
  6 27  1  0  0  0
  6 28  1  0  0  0
  7 24  1  0  0  0
  7 29  1  0  0  0
  7 30  1  0  0  0
  8 29  2  0  0  0
  8 31  1  0  0  0
  8 32  1  0  0  0
  9 29  1  0  0  0
  9 33  1  0  0  0
  9 34  1  0  0  0
 10 11  1  0  0  0
 10 12  2  0  0  0
 10 13  1  0  0  0
 11 17  1  0  0  0
 12 15  1  0  0  0
 13 16  2  0  0  0
 14 15  2  0  0  0
 14 16  1  0  0  0
 18 20  1  0  0  0
 19 21  1  0  0  0
 19 22  2  0  0  0
 19 23  1  0  0  0
 22 25  1  0  0  0
 23 26  2  0  0  0
 24 25  2  0  0  0
 24 26  1  0  0  0
M  END
>  <CHROM.0>
-57.89309938,62.93658722,53.00784588

>  <CHROM.1>
66.27594548,-139.63593821,-7.29550970,-68.61084794,-15.18180730,136.86051377
-97.95175870,59.64589533,101.52257266,-155.87228894,-48.69290663,-3.18036437
17.64851550,1.22627414,-0.05374036,-0.12709791

>  <HEADER>
                                                                          

>  <MASTER>
        0    0    0    0    0    0    0    0   52    0   52    0          

>  <Name>
Camostat.pdb

>  <RI>
-1.0852e+09

>  <Rbt.Current_Directory>
/root/miniconda3/envs/rdock/share/rxdock-2013.1.1_148c5bd1-0/data/ligands/prepped_ligands/Camostat

>  <Rbt.Executable>
rbdock/0.1.0

>  <Rbt.Library>
librxdock.so/0.1.0

>  <Rbt.Parameter_File>
/root/miniconda3/envs/rdock/share/rxdock-2013.1.1_148c5bd1-0/data/scripts/dock.prm

>  <Rbt.Receptor>
def.prm

>  <SCORE>
-10.2186

>  <SCORE.INTER>
-8.75835

>  <SCORE.INTER.CONST>
1

>  <SCORE.INTER.POLAR>
-2.25694

>  <SCORE.INTER.REPUL>
0.018458

>  <SCORE.INTER.ROT>
10

>  <SCORE.INTER.VDW>
-16.577

>  <SCORE.INTER.norm>
-0.302012

>  <SCORE.INTRA>
-0.497191

>  <SCORE.INTRA.DIHEDRAL>
-2.5741

>  <SCORE.INTRA.DIHEDRAL.0>
23.8083

>  <SCORE.INTRA.POLAR>
0

>  <SCORE.INTRA.POLAR.0>
0

>  <SCORE.INTRA.REPUL>
0

>  <SCORE.INTRA.REPUL.0>
0

>  <SCORE.INTRA.VDW>
0.78986

>  <SCORE.INTRA.VDW.0>
-1.22275

>  <SCORE.INTRA.norm>
-0.0171445

>  <SCORE.RESTR>
0

>  <SCORE.RESTR.CAVITY>
0

>  <SCORE.RESTR.norm>
0

>  <SCORE.SYSTEM>
-0.963072

>  <SCORE.SYSTEM.CONST>
0

>  <SCORE.SYSTEM.DIHEDRAL>
0.176919

>  <SCORE.SYSTEM.VDW>
-1.05153

>  <SCORE.SYSTEM.norm>
-0.0332094

>  <SCORE.heavy>
29

>  <SCORE.norm>
-0.352366

>  <TITLE>
    5284360_D                                                             

$$$$
Camostat.pdb
  RxDock  02242112503D
librxdock.so/0.1.0
 34 35  0  0  0  0  0  0  0  0999 V2000
  -48.3621   -4.2350   15.7367 O   0  0  0  0  0  0
  -44.9156   -0.5668   18.5450 O   0  0  0  0  0  0
  -43.2715    0.8037   17.8673 O   0  0  0  0  0  0
  -46.4197   -0.8715   21.2744 O   0  0  0  0  0  0
  -49.4184   -2.2738   15.3408 O   0  0  0  0  0  0
  -47.6344    0.3187   19.7563 N   0  0  0  0  0  0
  -54.5435   -5.9207   15.7559 N   0  0  0  0  0  0
  -56.1471   -7.3867   14.8927 N   0  0  0  0  0  0
  -55.0076   -6.0209   13.4049 N   0  3  0  0  0  0
  -44.8961   -2.1105   16.4457 C   0  0  0  0  0  0
  -43.6323   -1.3106   16.7066 C   0  0  0  0  0  0
  -45.4125   -2.9307   17.4246 C   0  0  0  0  0  0
  -45.5356   -2.0088   15.2289 C   0  0  0  0  0  0
  -47.2062   -3.5451   15.9702 C   0  0  0  0  0  0
  -46.5636   -3.6458   17.1913 C   0  0  0  0  0  0
  -46.6868   -2.7217   14.9901 C   0  0  0  0  0  0
  -43.8900   -0.2380   17.7422 C   0  0  0  0  0  0
  -45.2228    0.3424   19.6164 C   0  0  0  0  0  0
  -50.7949   -4.1638   15.5583 C   0  0  0  0  0  0
  -46.4856   -0.1327   20.3020 C   0  0  0  0  0  0
  -49.4697   -3.4777   15.5379 C   0  0  0  0  0  0
  -51.9396   -3.4921   15.0394 C   0  0  0  0  0  0
  -50.9289   -5.4777   16.0955 C   0  0  0  0  0  0
  -53.3240   -5.3821   15.6863 C   0  0  0  0  0  0
  -53.1497   -4.0617   15.0831 C   0  0  0  0  0  0
  -52.1234   -6.0757   16.1610 C   0  0  0  0  0  0
  -48.9228   -0.0841   20.3350 C   0  0  0  0  0  0
  -47.6834    1.1881   18.5658 C   0  0  0  0  0  0
  -55.2408   -6.4170   14.6738 C   0  0  0  0  0  0
  -54.9887   -5.9593   16.6507 H   0  0  0  0  0  0
  -56.3152   -7.7131   15.8235 H   0  0  0  0  0  0
  -56.6579   -7.7830   14.1298 H   0  0  0  0  0  0
  -54.7141   -5.0863   13.2116 H   0  0  0  0  0  0
  -55.1074   -6.6705   12.6509 H   0  0  0  0  0  0
  1 14  1  0  0  0
  1 21  1  0  0  0
  2 17  1  0  0  0
  2 18  1  0  0  0
  3 17  2  0  0  0
  4 20  2  0  0  0
  5 21  2  0  0  0
  6 20  1  0  0  0
  6 27  1  0  0  0
  6 28  1  0  0  0
  7 24  1  0  0  0
  7 29  1  0  0  0
  7 30  1  0  0  0
  8 29  2  0  0  0
  8 31  1  0  0  0
  8 32  1  0  0  0
  9 29  1  0  0  0
  9 33  1  0  0  0
  9 34  1  0  0  0
 10 11  1  0  0  0
 10 12  2  0  0  0
 10 13  1  0  0  0
 11 17  1  0  0  0
 12 15  1  0  0  0
 13 16  2  0  0  0
 14 15  2  0  0  0
 14 16  1  0  0  0
 18 20  1  0  0  0
 19 21  1  0  0  0
 19 22  2  0  0  0
 19 23  1  0  0  0
 22 25  1  0  0  0
 23 26  2  0  0  0
 24 25  2  0  0  0
 24 26  1  0  0  0
M  END
>  <CHROM.0>
162.36746679,-55.09401554,63.07879649

>  <CHROM.1>
115.08297726,12.58833791,-2.88893592,174.12515560,72.24720527,-32.45753779
-67.93703001,25.14302928,92.71271980,-164.75376561,-48.80195820,-2.78612069
16.82909964,-2.55622057,0.25891875,0.94473943

>  <HEADER>
                                                                          

>  <MASTER>
        0    0    0    0    0    0    0    0   52    0   52    0          

>  <Name>
Camostat.pdb

>  <RI>
-1.0852e+09

>  <Rbt.Current_Directory>
/root/miniconda3/envs/rdock/share/rxdock-2013.1.1_148c5bd1-0/data/ligands/prepped_ligands/Camostat

>  <Rbt.Executable>
rbdock/0.1.0

>  <Rbt.Library>
librxdock.so/0.1.0

>  <Rbt.Parameter_File>
/root/miniconda3/envs/rdock/share/rxdock-2013.1.1_148c5bd1-0/data/scripts/dock.prm

>  <Rbt.Receptor>
def.prm

>  <SCORE>
-8.10204

>  <SCORE.INTER>
-7.53633

>  <SCORE.INTER.CONST>
1

>  <SCORE.INTER.POLAR>
0

>  <SCORE.INTER.REPUL>
0.0590735

>  <SCORE.INTER.ROT>
10

>  <SCORE.INTER.VDW>
-23.2317

>  <SCORE.INTER.norm>
-0.259873

>  <SCORE.INTRA>
-0.141095

>  <SCORE.INTRA.DIHEDRAL>
-2.08633

>  <SCORE.INTRA.DIHEDRAL.0>
23.8083

>  <SCORE.INTRA.POLAR>
0

>  <SCORE.INTRA.POLAR.0>
0

>  <SCORE.INTRA.REPUL>
0

>  <SCORE.INTRA.REPUL.0>
0

>  <SCORE.INTRA.VDW>
0.902071

>  <SCORE.INTRA.VDW.0>
-1.22275

>  <SCORE.INTRA.norm>
-0.00486533

>  <SCORE.RESTR>
0.000924876

>  <SCORE.RESTR.CAVITY>
0.000924876

>  <SCORE.RESTR.norm>
3.18923e-05

>  <SCORE.SYSTEM>
-0.425542

>  <SCORE.SYSTEM.CONST>
0

>  <SCORE.SYSTEM.DIHEDRAL>
0.864549

>  <SCORE.SYSTEM.POLAR>
-0.00769204

>  <SCORE.SYSTEM.VDW>
-0.831664

>  <SCORE.SYSTEM.norm>
-0.0146739

>  <SCORE.heavy>
29

>  <SCORE.norm>
-0.279381

>  <TITLE>
    5284360_D                                                             

$$$$
Camostat.pdb
  RxDock  02242112503D
librxdock.so/0.1.0
 34 35  0  0  0  0  0  0  0  0999 V2000
  -51.6778   -2.1689   18.3904 O   0  0  0  0  0  0
  -47.8830   -0.1050   14.5832 O   0  0  0  0  0  0
  -45.6720   -0.3880   14.3144 O   0  0  0  0  0  0
  -50.3999    0.1465   13.3785 O   0  0  0  0  0  0
  -51.4071   -4.1141   19.5137 O   0  0  0  0  0  0
  -49.3655    1.6355   11.9967 N   0  0  0  0  0  0
  -54.5589   -6.2176   14.4226 N   0  0  0  0  0  0
  -56.1120   -7.8317   13.7527 N   0  0  0  0  0  0
  -54.4900   -8.4530   15.2890 N   0  3  0  0  0  0
  -47.9848   -0.8923   17.0634 C   0  0  0  0  0  0
  -46.6285   -0.4345   16.5573 C   0  0  0  0  0  0
  -49.0383   -0.0067   17.1224 C   0  0  0  0  0  0
  -48.1665   -2.2010   17.4560 C   0  0  0  0  0  0
  -50.4531   -1.7384   17.9648 C   0  0  0  0  0  0
  -50.2693   -0.4253   17.5699 C   0  0  0  0  0  0
  -49.3953   -2.6250   17.9045 C   0  0  0  0  0  0
  -46.6404   -0.3131   15.0492 C   0  0  0  0  0  0
  -48.0380   -0.0168   13.1559 C   0  0  0  0  0  0
  -52.4949   -4.2618   17.4379 C   0  0  0  0  0  0
  -49.3892    0.5957   12.8568 C   0  0  0  0  0  0
  -51.8132   -3.5110   18.5328 C   0  0  0  0  0  0
  -52.7892   -3.5986   16.2114 C   0  0  0  0  0  0
  -52.8596   -5.6297   17.6074 C   0  0  0  0  0  0
  -53.8794   -5.6136   15.4000 C   0  0  0  0  0  0
  -53.4387   -4.2302   15.2266 C   0  0  0  0  0  0
  -53.5150   -6.2911   16.6474 C   0  0  0  0  0  0
  -50.6202    2.3036   11.6274 C   0  0  0  0  0  0
  -48.1329    2.1386   11.3618 C   0  0  0  0  0  0
  -55.0281   -7.5137   14.4832 C   0  0  0  0  0  0
  -54.7327   -5.7012   13.5838 H   0  0  0  0  0  0
  -56.5418   -7.1417   13.1693 H   0  0  0  0  0  0
  -56.4908   -8.7566   13.7862 H   0  0  0  0  0  0
  -53.5038   -8.4847   15.4423 H   0  0  0  0  0  0
  -55.0811   -9.1114   15.7555 H   0  0  0  0  0  0
  1 14  1  0  0  0
  1 21  1  0  0  0
  2 17  1  0  0  0
  2 18  1  0  0  0
  3 17  2  0  0  0
  4 20  2  0  0  0
  5 21  2  0  0  0
  6 20  1  0  0  0
  6 27  1  0  0  0
  6 28  1  0  0  0
  7 24  1  0  0  0
  7 29  1  0  0  0
  7 30  1  0  0  0
  8 29  2  0  0  0
  8 31  1  0  0  0
  8 32  1  0  0  0
  9 29  1  0  0  0
  9 33  1  0  0  0
  9 34  1  0  0  0
 10 11  1  0  0  0
 10 12  2  0  0  0
 10 13  1  0  0  0
 11 17  1  0  0  0
 12 15  1  0  0  0
 13 16  2  0  0  0
 14 15  2  0  0  0
 14 16  1  0  0  0
 18 20  1  0  0  0
 19 21  1  0  0  0
 19 22  2  0  0  0
 19 23  1  0  0  0
 22 25  1  0  0  0
 23 26  2  0  0  0
 24 25  2  0  0  0
 24 26  1  0  0  0
M  END
>  <CHROM.0>
-57.26650180,-71.15750075,179.71111401

>  <CHROM.1>
169.01946825,80.39386334,2.06193219,-164.20006484,-179.60075471,-37.20270265
-76.36257676,24.80828498,-50.83859692,9.60293228,-50.76285072,-2.45901166
15.54361046,-2.63976697,-0.75171760,-1.14586663

>  <HEADER>
                                                                          

>  <MASTER>
        0    0    0    0    0    0    0    0   52    0   52    0          

>  <Name>
Camostat.pdb

>  <RI>
-1.0852e+09

>  <Rbt.Current_Directory>
/root/miniconda3/envs/rdock/share/rxdock-2013.1.1_148c5bd1-0/data/ligands/prepped_ligands/Camostat

>  <Rbt.Executable>
rbdock/0.1.0

>  <Rbt.Library>
librxdock.so/0.1.0

>  <Rbt.Parameter_File>
/root/miniconda3/envs/rdock/share/rxdock-2013.1.1_148c5bd1-0/data/scripts/dock.prm

>  <Rbt.Receptor>
def.prm

>  <SCORE>
-12.6916

>  <SCORE.INTER>
-16.5218

>  <SCORE.INTER.CONST>
1

>  <SCORE.INTER.POLAR>
-1.49749

>  <SCORE.INTER.REPUL>
0.0173372

>  <SCORE.INTER.ROT>
10

>  <SCORE.INTER.VDW>
-26.917

>  <SCORE.INTER.norm>
-0.569716

>  <SCORE.INTRA>
4.71193

>  <SCORE.INTRA.DIHEDRAL>
4.32415

>  <SCORE.INTRA.DIHEDRAL.0>
23.8083

>  <SCORE.INTRA.POLAR>
0

>  <SCORE.INTRA.POLAR.0>
0

>  <SCORE.INTRA.REPUL>
0

>  <SCORE.INTRA.REPUL.0>
0

>  <SCORE.INTRA.VDW>
2.54986

>  <SCORE.INTRA.VDW.0>
-1.22275

>  <SCORE.INTRA.norm>
0.16248

>  <SCORE.RESTR>
0

>  <SCORE.RESTR.CAVITY>
0

>  <SCORE.RESTR.norm>
0

>  <SCORE.SYSTEM>
-0.881751

>  <SCORE.SYSTEM.CONST>
0

>  <SCORE.SYSTEM.DIHEDRAL>
0.614091

>  <SCORE.SYSTEM.POLAR>
-0.00125255

>  <SCORE.SYSTEM.VDW>
-1.18454

>  <SCORE.SYSTEM.norm>
-0.0304052

>  <SCORE.heavy>
29

>  <SCORE.norm>
-0.437641

>  <TITLE>
    5284360_D                                                             

$$$$
Camostat.pdb
  RxDock  02242112503D
librxdock.so/0.1.0
 34 35  0  0  0  0  0  0  0  0999 V2000
  -53.7690   -4.3032   14.7608 O   0  0  0  0  0  0
  -47.5882   -1.6540   16.1789 O   0  0  0  0  0  0
  -48.3975   -0.3208   14.5639 O   0  0  0  0  0  0
  -47.0366   -1.9905   18.8045 O   0  0  0  0  0  0
  -55.2774   -5.0174   16.2884 O   0  0  0  0  0  0
  -45.7038   -0.1416   18.7676 N   0  0  0  0  0  0
  -50.2908   -4.9351   20.1220 N   0  0  0  0  0  0
  -49.0407   -6.2469   21.5993 N   0  0  0  0  0  0
  -51.2768   -6.7804   21.2947 N   0  3  0  0  0  0
  -49.8223   -3.1663   14.3604 C   0  0  0  0  0  0
  -48.3718   -2.7366   14.2312 C   0  0  0  0  0  0
  -50.1343   -4.4742   14.6600 C   0  0  0  0  0  0
  -50.8311   -2.2433   14.1873 C   0  0  0  0  0  0
  -52.4617   -3.9344   14.6142 C   0  0  0  0  0  0
  -51.4480   -4.8597   14.7882 C   0  0  0  0  0  0
  -52.1465   -2.6233   14.3142 C   0  0  0  0  0  0
  -48.1372   -1.4384   14.9720 C   0  0  0  0  0  0
  -47.2816   -0.4942   16.9725 C   0  0  0  0  0  0
  -53.0753   -4.7473   17.0579 C   0  0  0  0  0  0
  -46.6623   -0.9538   18.2748 C   0  0  0  0  0  0
  -54.1329   -4.6992   16.0060 C   0  0  0  0  0  0
  -52.7492   -5.9936   17.6670 C   0  0  0  0  0  0
  -52.3941   -3.5622   17.4635 C   0  0  0  0  0  0
  -51.1706   -4.8535   19.1213 C   0  0  0  0  0  0
  -51.8373   -6.0639   18.6438 C   0  0  0  0  0  0
  -51.4815   -3.5934   18.4406 C   0  0  0  0  0  0
  -45.0379   -0.4843   20.0311 C   0  0  0  0  0  0
  -45.2917    1.1177   18.1196 C   0  0  0  0  0  0
  -50.2256   -5.9794   21.0213 C   0  0  0  0  0  0
  -49.6395   -4.1846   20.2362 H   0  0  0  0  0  0
  -48.2428   -5.6811   21.3890 H   0  0  0  0  0  0
  -48.9520   -7.0078   22.2421 H   0  0  0  0  0  0
  -52.2033   -6.4089   21.3222 H   0  0  0  0  0  0
  -51.1346   -7.7581   21.4505 H   0  0  0  0  0  0
  1 14  1  0  0  0
  1 21  1  0  0  0
  2 17  1  0  0  0
  2 18  1  0  0  0
  3 17  2  0  0  0
  4 20  2  0  0  0
  5 21  2  0  0  0
  6 20  1  0  0  0
  6 27  1  0  0  0
  6 28  1  0  0  0
  7 24  1  0  0  0
  7 29  1  0  0  0
  7 30  1  0  0  0
  8 29  2  0  0  0
  8 31  1  0  0  0
  8 32  1  0  0  0
  9 29  1  0  0  0
  9 33  1  0  0  0
  9 34  1  0  0  0
 10 11  1  0  0  0
 10 12  2  0  0  0
 10 13  1  0  0  0
 11 17  1  0  0  0
 12 15  1  0  0  0
 13 16  2  0  0  0
 14 15  2  0  0  0
 14 16  1  0  0  0
 18 20  1  0  0  0
 19 21  1  0  0  0
 19 22  2  0  0  0
 19 23  1  0  0  0
 22 25  1  0  0  0
 23 26  2  0  0  0
 24 25  2  0  0  0
 24 26  1  0  0  0
M  END
>  <CHROM.0>
-67.40943791,-59.76894608,159.33118464

>  <CHROM.1>
64.50379282,177.78270075,-1.56844366,-179.37115096,-20.23065767,-36.13066418
-134.49542194,99.29902303,-35.07754727,-117.61425760,-50.03280316,-3.31932181
17.21221033,2.96788180,0.58927798,2.05195495

>  <HEADER>
                                                                          

>  <MASTER>
        0    0    0    0    0    0    0    0   52    0   52    0          

>  <Name>
Camostat.pdb

>  <RI>
-1.0852e+09

>  <Rbt.Current_Directory>
/root/miniconda3/envs/rdock/share/rxdock-2013.1.1_148c5bd1-0/data/ligands/prepped_ligands/Camostat

>  <Rbt.Executable>
rbdock/0.1.0

>  <Rbt.Library>
librxdock.so/0.1.0

>  <Rbt.Parameter_File>
/root/miniconda3/envs/rdock/share/rxdock-2013.1.1_148c5bd1-0/data/scripts/dock.prm

>  <Rbt.Receptor>
def.prm

>  <SCORE>
-8.91605

>  <SCORE.INTER>
-7.59064

>  <SCORE.INTER.CONST>
1

>  <SCORE.INTER.POLAR>
-1.42359

>  <SCORE.INTER.REPUL>
0

>  <SCORE.INTER.ROT>
10

>  <SCORE.INTER.VDW>
-18.1504

>  <SCORE.INTER.norm>
-0.261746

>  <SCORE.INTRA>
-0.916027

>  <SCORE.INTRA.DIHEDRAL>
-4.52073

>  <SCORE.INTRA.DIHEDRAL.0>
23.8083

>  <SCORE.INTRA.POLAR>
0

>  <SCORE.INTRA.POLAR.0>
0

>  <SCORE.INTRA.REPUL>
0

>  <SCORE.INTRA.REPUL.0>
0

>  <SCORE.INTRA.VDW>
1.34434

>  <SCORE.INTRA.VDW.0>
-1.22275

>  <SCORE.INTRA.norm>
-0.0315871

>  <SCORE.RESTR>
0

>  <SCORE.RESTR.CAVITY>
0

>  <SCORE.RESTR.norm>
0

>  <SCORE.SYSTEM>
-0.409374

>  <SCORE.SYSTEM.CONST>
0

>  <SCORE.SYSTEM.DIHEDRAL>
1.10839

>  <SCORE.SYSTEM.VDW>
-0.96357

>  <SCORE.SYSTEM.norm>
-0.0141164

>  <SCORE.heavy>
29

>  <SCORE.norm>
-0.30745

>  <TITLE>
    5284360_D                                                             

$$$$
Camostat.pdb
  RxDock  02242112503D
librxdock.so/0.1.0
 34 35  0  0  0  0  0  0  0  0999 V2000
  -51.6560   -1.9598   17.6556 O   0  0  0  0  0  0
  -46.3817    0.6618   20.3861 O   0  0  0  0  0  0
  -45.7187    1.6265   18.4702 O   0  0  0  0  0  0
  -45.8058   -1.7410   19.1747 O   0  0  0  0  0  0
  -49.9023   -3.1870   16.9228 O   0  0  0  0  0  0
  -43.6924   -0.9550   18.8393 N   0  0  0  0  0  0
  -54.5668   -6.7247   14.5461 N   0  0  0  0  0  0
  -56.6913   -7.2928   13.7524 N   0  0  0  0  0  0
  -56.5264   -6.4234   15.8958 N   0  3  0  0  0  0
  -48.9810    0.9497   18.8423 C   0  0  0  0  0  0
  -47.9848    2.0051   19.2883 C   0  0  0  0  0  0
  -49.0968    0.6246   17.5086 C   0  0  0  0  0  0
  -49.7658    0.3068   19.7753 C   0  0  0  0  0  0
  -50.7801   -0.9854   18.0424 C   0  0  0  0  0  0
  -49.9912   -0.3396   17.1072 C   0  0  0  0  0  0
  -50.6620   -0.6580   19.3794 C   0  0  0  0  0  0
  -46.5834    1.4349   19.3063 C   0  0  0  0  0  0
  -45.0780    0.0715   20.5313 C   0  0  0  0  0  0
  -52.0357   -4.0256   16.4132 C   0  0  0  0  0  0
  -44.8980   -0.9677   19.4458 C   0  0  0  0  0  0
  -51.1087   -3.0232   17.0157 C   0  0  0  0  0  0
  -51.5142   -5.0313   15.5487 C   0  0  0  0  0  0
  -53.4344   -3.9843   16.6871 C   0  0  0  0  0  0
  -53.7689   -5.8568   15.1724 C   0  0  0  0  0  0
  -52.3239   -5.9176   14.9576 C   0  0  0  0  0  0
  -54.2745   -4.8499   16.1096 C   0  0  0  0  0  0
  -43.4027   -1.9246   17.7749 C   0  0  0  0  0  0
  -42.6064   -0.0269   19.2065 C   0  0  0  0  0  0
  -55.9264   -6.8279   14.7566 C   0  0  0  0  0  0
  -54.1518   -7.3510   13.8858 H   0  0  0  0  0  0
  -56.2681   -7.5727   12.8900 H   0  0  0  0  0  0
  -57.6826   -7.3639   13.8630 H   0  0  0  0  0  0
  -56.3362   -6.8853   16.7604 H   0  0  0  0  0  0
  -57.1507   -5.6420   15.8832 H   0  0  0  0  0  0
  1 14  1  0  0  0
  1 21  1  0  0  0
  2 17  1  0  0  0
  2 18  1  0  0  0
  3 17  2  0  0  0
  4 20  2  0  0  0
  5 21  2  0  0  0
  6 20  1  0  0  0
  6 27  1  0  0  0
  6 28  1  0  0  0
  7 24  1  0  0  0
  7 29  1  0  0  0
  7 30  1  0  0  0
  8 29  2  0  0  0
  8 31  1  0  0  0
  8 32  1  0  0  0
  9 29  1  0  0  0
  9 33  1  0  0  0
  9 34  1  0  0  0
 10 11  1  0  0  0
 10 12  2  0  0  0
 10 13  1  0  0  0
 11 17  1  0  0  0
 12 15  1  0  0  0
 13 16  2  0  0  0
 14 15  2  0  0  0
 14 16  1  0  0  0
 18 20  1  0  0  0
 19 21  1  0  0  0
 19 22  2  0  0  0
 19 23  1  0  0  0
 22 25  1  0  0  0
 23 26  2  0  0  0
 24 25  2  0  0  0
 24 26  1  0  0  0
M  END
>  <CHROM.0>
-66.75601144,-59.04834302,-178.60833905

>  <CHROM.1>
58.71836629,8.25594219,0.81267326,-68.68582125,174.53812140,-65.70824505
-77.48260474,-77.20694303,-43.29675303,169.68737055,-49.77323927,-2.25030832
17.54271541,2.47814199,0.07847230,-2.66094033

>  <HEADER>
                                                                          

>  <MASTER>
        0    0    0    0    0    0    0    0   52    0   52    0          

>  <Name>
Camostat.pdb

>  <RI>
-1.0852e+09

>  <Rbt.Current_Directory>
/root/miniconda3/envs/rdock/share/rxdock-2013.1.1_148c5bd1-0/data/ligands/prepped_ligands/Camostat

>  <Rbt.Executable>
rbdock/0.1.0

>  <Rbt.Library>
librxdock.so/0.1.0

>  <Rbt.Parameter_File>
/root/miniconda3/envs/rdock/share/rxdock-2013.1.1_148c5bd1-0/data/scripts/dock.prm

>  <Rbt.Receptor>
def.prm

>  <SCORE>
-16.755

>  <SCORE.INTER>
-8.73326

>  <SCORE.INTER.CONST>
1

>  <SCORE.INTER.POLAR>
-1.16447

>  <SCORE.INTER.REPUL>
0.0237327

>  <SCORE.INTER.ROT>
10

>  <SCORE.INTER.VDW>
-20.2927

>  <SCORE.INTER.norm>
-0.301147

>  <SCORE.INTRA>
-7.01698

>  <SCORE.INTRA.DIHEDRAL>
-15.0634

>  <SCORE.INTRA.DIHEDRAL.0>
23.8083

>  <SCORE.INTRA.POLAR>
0

>  <SCORE.INTRA.POLAR.0>
0

>  <SCORE.INTRA.REPUL>
0

>  <SCORE.INTRA.REPUL.0>
0

>  <SCORE.INTRA.VDW>
0.514735

>  <SCORE.INTRA.VDW.0>
-1.22275

>  <SCORE.INTRA.norm>
-0.241965

>  <SCORE.RESTR>
0

>  <SCORE.RESTR.CAVITY>
0

>  <SCORE.RESTR.norm>
0

>  <SCORE.SYSTEM>
-1.00475

>  <SCORE.SYSTEM.CONST>
0

>  <SCORE.SYSTEM.DIHEDRAL>
0.124648

>  <SCORE.SYSTEM.POLAR>
-0.00530179

>  <SCORE.SYSTEM.VDW>
-1.04905

>  <SCORE.SYSTEM.norm>
-0.0346467

>  <SCORE.heavy>
29

>  <SCORE.norm>
-0.577758

>  <TITLE>
    5284360_D                                                             

$$$$
Camostat.pdb
  RxDock  02242112503D
librxdock.so/0.1.0
 34 35  0  0  0  0  0  0  0  0999 V2000
  -50.1941   -0.8522   13.2899 O   0  0  0  0  0  0
  -51.5839   -5.0570   19.1152 O   0  0  0  0  0  0
  -49.9236   -3.5469   19.0541 O   0  0  0  0  0  0
  -48.5268   -5.9060   19.1586 O   0  0  0  0  0  0
  -48.4568    0.3460   12.4745 O   0  0  0  0  0  0
  -49.9262   -7.4972   18.3183 N   0  0  0  0  0  0
  -45.2843   -2.7078   16.9766 N   0  0  0  0  0  0
  -43.2346   -2.5427   18.0890 N   0  0  0  0  0  0
  -43.2883   -2.0417   15.8255 N   0  3  0  0  0  0
  -51.5882   -2.4069   16.8492 C   0  0  0  0  0  0
  -52.1161   -2.9635   18.1595 C   0  0  0  0  0  0
  -51.7657   -3.1073   15.6763 C   0  0  0  0  0  0
  -50.9377   -1.1919   16.8304 C   0  0  0  0  0  0
  -50.6438   -1.3776   14.4681 C   0  0  0  0  0  0
  -51.2974   -2.5968   14.4885 C   0  0  0  0  0  0
  -50.4672   -0.6768   15.6455 C   0  0  0  0  0  0
  -51.0786   -3.8495   18.8136 C   0  0  0  0  0  0
  -50.7739   -5.9163   19.9365 C   0  0  0  0  0  0
  -47.9801   -1.0580   14.2955 C   0  0  0  0  0  0
  -49.6262   -6.4382   19.0993 C   0  0  0  0  0  0
  -48.8945   -0.4640   13.2765 C   0  0  0  0  0  0
  -46.8648   -0.3028   14.7609 C   0  0  0  0  0  0
  -48.2059   -2.3714   14.8023 C   0  0  0  0  0  0
  -46.1753   -2.1906   16.1276 C   0  0  0  0  0  0
  -46.0012   -0.8229   15.6408 C   0  0  0  0  0  0
  -47.3606   -2.9257   15.6780 C   0  0  0  0  0  0
  -48.8910   -8.0831   17.4569 C   0  0  0  0  0  0
  -51.2699   -8.1016   18.2476 C   0  0  0  0  0  0
  -43.9298   -2.4481   16.9412 C   0  0  0  0  0  0
  -45.6172   -3.3347   17.6814 H   0  0  0  0  0  0
  -43.6976   -2.8165   18.9328 H   0  0  0  0  0  0
  -42.2547   -2.3438   18.1046 H   0  0  0  0  0  0
  -43.3052   -1.0813   15.5527 H   0  0  0  0  0  0
  -42.7730   -2.6997   15.2760 H   0  0  0  0  0  0
  1 14  1  0  0  0
  1 21  1  0  0  0
  2 17  1  0  0  0
  2 18  1  0  0  0
  3 17  2  0  0  0
  4 20  2  0  0  0
  5 21  2  0  0  0
  6 20  1  0  0  0
  6 27  1  0  0  0
  6 28  1  0  0  0
  7 24  1  0  0  0
  7 29  1  0  0  0
  7 30  1  0  0  0
  8 29  2  0  0  0
  8 31  1  0  0  0
  8 32  1  0  0  0
  9 29  1  0  0  0
  9 33  1  0  0  0
  9 34  1  0  0  0
 10 11  1  0  0  0
 10 12  2  0  0  0
 10 13  1  0  0  0
 11 17  1  0  0  0
 12 15  1  0  0  0
 13 16  2  0  0  0
 14 15  2  0  0  0
 14 16  1  0  0  0
 18 20  1  0  0  0
 19 21  1  0  0  0
 19 22  2  0  0  0
 19 23  1  0  0  0
 22 25  1  0  0  0
 23 26  2  0  0  0
 24 25  2  0  0  0
 24 26  1  0  0  0
M  END
>  <CHROM.0>
170.81894208,-61.28059756,176.30128438

>  <CHROM.1>
-128.64766866,-158.43139938,9.98999960,-73.27574034,-35.73863632,81.66217378
88.78315374,-127.12090956,97.99304233,-150.28522276,-48.79805968,-3.13673052
16.58440048,1.01346797,-0.08418062,-0.70631103

>  <HEADER>
                                                                          

>  <MASTER>
        0    0    0    0    0    0    0    0   52    0   52    0          

>  <Name>
Camostat.pdb

>  <RI>
-1.0852e+09

>  <Rbt.Current_Directory>
/root/miniconda3/envs/rdock/share/rxdock-2013.1.1_148c5bd1-0/data/ligands/prepped_ligands/Camostat

>  <Rbt.Executable>
rbdock/0.1.0

>  <Rbt.Library>
librxdock.so/0.1.0

>  <Rbt.Parameter_File>
/root/miniconda3/envs/rdock/share/rxdock-2013.1.1_148c5bd1-0/data/scripts/dock.prm

>  <Rbt.Receptor>
def.prm

>  <SCORE>
-15.8698

>  <SCORE.INTER>
-14.5606

>  <SCORE.INTER.CONST>
1

>  <SCORE.INTER.POLAR>
-1.99454

>  <SCORE.INTER.REPUL>
0.038378

>  <SCORE.INTER.ROT>
10

>  <SCORE.INTER.VDW>
-23.3711

>  <SCORE.INTER.norm>
-0.50209

>  <SCORE.INTRA>
-0.384891

>  <SCORE.INTRA.DIHEDRAL>
-5.07986

>  <SCORE.INTRA.DIHEDRAL.0>
23.8083

>  <SCORE.INTRA.POLAR>
0

>  <SCORE.INTRA.POLAR.0>
0

>  <SCORE.INTRA.REPUL>
0

>  <SCORE.INTRA.REPUL.0>
0

>  <SCORE.INTRA.VDW>
2.15504

>  <SCORE.INTRA.VDW.0>
-1.22275

>  <SCORE.INTRA.norm>
-0.0132721

>  <SCORE.RESTR>
0

>  <SCORE.RESTR.CAVITY>
0

>  <SCORE.RESTR.norm>
0

>  <SCORE.SYSTEM>
-0.924326

>  <SCORE.SYSTEM.CONST>
0

>  <SCORE.SYSTEM.DIHEDRAL>
0.255461

>  <SCORE.SYSTEM.VDW>
-1.05206

>  <SCORE.SYSTEM.norm>
-0.0318733

>  <SCORE.heavy>
29

>  <SCORE.norm>
-0.547236

>  <TITLE>
    5284360_D                                                             

$$$$
Camostat.pdb
  RxDock  02242112513D
librxdock.so/0.1.0
 34 35  0  0  0  0  0  0  0  0999 V2000
  -50.1958   -0.5543   15.1455 O   0  0  0  0  0  0
  -51.4311   -5.4273   19.9231 O   0  0  0  0  0  0
  -49.1990   -5.2880   19.7255 O   0  0  0  0  0  0
  -51.0603   -6.6133   17.5139 O   0  0  0  0  0  0
  -48.7110    0.3945   13.7264 O   0  0  0  0  0  0
  -49.9452   -8.3192   18.5352 N   0  0  0  0  0  0
  -44.7555   -1.5942   18.2724 N   0  0  0  0  0  0
  -42.4740   -1.6311   18.7818 N   0  0  0  0  0  0
  -43.1098   -2.0896   16.5994 N   0  3  0  0  0  0
  -50.4374   -2.5325   18.7590 C   0  0  0  0  0  0
  -50.5048   -3.2608   20.0896 C   0  0  0  0  0  0
  -50.8283   -1.2147   18.6689 C   0  0  0  0  0  0
  -49.9742   -3.1883   17.6388 C   0  0  0  0  0  0
  -50.2916   -1.2098   16.3404 C   0  0  0  0  0  0
  -50.7558   -0.5527   17.4659 C   0  0  0  0  0  0
  -49.8998   -2.5313   16.4331 C   0  0  0  0  0  0
  -50.2754   -4.7433   19.8930 C   0  0  0  0  0  0
  -51.3419   -6.8616   19.8622 C   0  0  0  0  0  0
  -47.8211   -0.5027   15.7056 C   0  0  0  0  0  0
  -50.7687   -7.2502   18.5164 C   0  0  0  0  0  0
  -48.9442   -0.1848   14.7756 C   0  0  0  0  0  0
  -46.7074   -1.2530   15.2285 C   0  0  0  0  0  0
  -47.8532   -0.0707   17.0641 C   0  0  0  0  0  0
  -45.7449   -1.2158   17.4600 C   0  0  0  0  0  0
  -45.7053   -1.5925   16.0477 C   0  0  0  0  0  0
  -46.8724   -0.3965   17.9129 C   0  0  0  0  0  0
  -49.3362   -8.7912   17.2847 C   0  0  0  0  0  0
  -49.6328   -9.0846   19.7567 C   0  0  0  0  0  0
  -43.4509   -1.7975   17.8721 C   0  0  0  0  0  0
  -44.9739   -1.7514   19.2357 H   0  0  0  0  0  0
  -42.7049   -1.3880   19.7246 H   0  0  0  0  0  0
  -41.5158   -1.7522   18.5227 H   0  0  0  0  0  0
  -43.0165   -1.3635   15.9203 H   0  0  0  0  0  0
  -42.9272   -3.0366   16.3344 H   0  0  0  0  0  0
  1 14  1  0  0  0
  1 21  1  0  0  0
  2 17  1  0  0  0
  2 18  1  0  0  0
  3 17  2  0  0  0
  4 20  2  0  0  0
  5 21  2  0  0  0
  6 20  1  0  0  0
  6 27  1  0  0  0
  6 28  1  0  0  0
  7 24  1  0  0  0
  7 29  1  0  0  0
  7 30  1  0  0  0
  8 29  2  0  0  0
  8 31  1  0  0  0
  8 32  1  0  0  0
  9 29  1  0  0  0
  9 33  1  0  0  0
  9 34  1  0  0  0
 10 11  1  0  0  0
 10 12  2  0  0  0
 10 13  1  0  0  0
 11 17  1  0  0  0
 12 15  1  0  0  0
 13 16  2  0  0  0
 14 15  2  0  0  0
 14 16  1  0  0  0
 18 20  1  0  0  0
 19 21  1  0  0  0
 19 22  2  0  0  0
 19 23  1  0  0  0
 22 25  1  0  0  0
 23 26  2  0  0  0
 24 25  2  0  0  0
 24 26  1  0  0  0
M  END
>  <CHROM.0>
-170.21147208,64.70112581,-54.48087000

>  <CHROM.1>
103.55632682,179.18772557,5.16679446,-64.87757069,29.45617464,82.22454644
169.51431679,-101.53265155,-36.33298627,124.80972624,-48.53009437,-3.16689317
17.63866039,0.97856319,-0.09466564,-0.45210909

>  <HEADER>
                                                                          

>  <MASTER>
        0    0    0    0    0    0    0    0   52    0   52    0          

>  <Name>
Camostat.pdb

>  <RI>
-1.0852e+09

>  <Rbt.Current_Directory>
/root/miniconda3/envs/rdock/share/rxdock-2013.1.1_148c5bd1-0/data/ligands/prepped_ligands/Camostat

>  <Rbt.Executable>
rbdock/0.1.0

>  <Rbt.Library>
librxdock.so/0.1.0

>  <Rbt.Parameter_File>
/root/miniconda3/envs/rdock/share/rxdock-2013.1.1_148c5bd1-0/data/scripts/dock.prm

>  <Rbt.Receptor>
def.prm

>  <SCORE>
-10.8756

>  <SCORE.INTER>
-10.2826

>  <SCORE.INTER.CONST>
1

>  <SCORE.INTER.POLAR>
-1.94899

>  <SCORE.INTER.REPUL>
0.015044

>  <SCORE.INTER.ROT>
10

>  <SCORE.INTER.VDW>
-19.1313

>  <SCORE.INTER.norm>
-0.354573

>  <SCORE.INTRA>
0.199223

>  <SCORE.INTRA.DIHEDRAL>
-3.15277

>  <SCORE.INTRA.DIHEDRAL.0>
23.8083

>  <SCORE.INTRA.POLAR>
0

>  <SCORE.INTRA.POLAR.0>
0

>  <SCORE.INTRA.REPUL>
0

>  <SCORE.INTRA.REPUL.0>
0

>  <SCORE.INTRA.VDW>
1.77561

>  <SCORE.INTRA.VDW.0>
-1.22275

>  <SCORE.INTRA.norm>
0.00686975

>  <SCORE.RESTR>
0.0272956

>  <SCORE.RESTR.CAVITY>
0.0272956

>  <SCORE.RESTR.norm>
0.000941228

>  <SCORE.SYSTEM>
-0.819453

>  <SCORE.SYSTEM.CONST>
0

>  <SCORE.SYSTEM.DIHEDRAL>
0.403258

>  <SCORE.SYSTEM.POLAR>
-0.012291

>  <SCORE.SYSTEM.VDW>
-0.979293

>  <SCORE.SYSTEM.norm>
-0.028257

>  <SCORE.heavy>
29

>  <SCORE.norm>
-0.375019

>  <TITLE>
    5284360_D                                                             

$$$$
