Camostat.pdb
  RxDock  02242110283D
librxdock.so/0.1.0
 34 35  0  0  0  0  0  0  0  0999 V2000
  -49.7360   -2.9151   15.7870 O   0  0  0  0  0  0
  -43.6499    0.8565   17.6373 O   0  0  0  0  0  0
  -44.5585   -0.8757   18.7394 O   0  0  0  0  0  0
  -41.6452    0.4677   19.5894 O   0  0  0  0  0  0
  -49.4826   -4.0248   17.7422 O   0  0  0  0  0  0
  -43.3917    0.6084   21.0475 N   0  0  0  0  0  0
  -54.9167   -6.6485   15.8545 N   0  0  0  0  0  0
  -57.0285   -6.8422   14.8702 N   0  0  0  0  0  0
  -56.5046   -4.8531   15.9408 N   0  3  0  0  0  0
  -45.9024   -1.4387   16.1777 C   0  0  0  0  0  0
  -44.4872   -0.9028   16.3018 C   0  0  0  0  0  0
  -46.9653   -0.5702   16.0611 C   0  0  0  0  0  0
  -46.1247   -2.7989   16.1716 C   0  0  0  0  0  0
  -48.4701   -2.4219   15.9313 C   0  0  0  0  0  0
  -48.2454   -1.0568   15.9371 C   0  0  0  0  0  0
  -47.4026   -3.2911   16.0480 C   0  0  0  0  0  0
  -44.2539   -0.3423   17.6877 C   0  0  0  0  0  0
  -43.5978    1.6124   18.8599 C   0  0  0  0  0  0
  -51.4305   -4.5094   16.5235 C   0  0  0  0  0  0
  -42.7768    0.8381   19.8684 C   0  0  0  0  0  0
  -50.1351   -3.7990   16.7352 C   0  0  0  0  0  0
  -51.7122   -5.6900   17.2700 C   0  0  0  0  0  0
  -52.3837   -4.0246   15.5804 C   0  0  0  0  0  0
  -53.8093   -5.9336   16.0660 C   0  0  0  0  0  0
  -52.8447   -6.3749   17.0722 C   0  0  0  0  0  0
  -53.5234   -4.6861   15.3520 C   0  0  0  0  0  0
  -42.6923   -0.1406   22.0996 C   0  0  0  0  0  0
  -44.7688    1.0447   21.3459 C   0  0  0  0  0  0
  -56.1560   -6.1066   15.5824 C   0  0  0  0  0  0
  -54.8485   -7.6451   15.9060 H   0  0  0  0  0  0
  -56.7787   -7.7641   14.5719 H   0  0  0  0  0  0
  -57.9291   -6.4744   14.6386 H   0  0  0  0  0  0
  -57.4538   -4.5513   15.8701 H   0  0  0  0  0  0
  -55.8147   -4.2246   16.3008 H   0  0  0  0  0  0
  1 14  1  0  0  0
  1 21  1  0  0  0
  2 17  1  0  0  0
  2 18  1  0  0  0
  3 17  2  0  0  0
  4 20  2  0  0  0
  5 21  2  0  0  0
  6 20  1  0  0  0
  6 27  1  0  0  0
  6 28  1  0  0  0
  7 24  1  0  0  0
  7 29  1  0  0  0
  7 30  1  0  0  0
  8 29  2  0  0  0
  8 31  1  0  0  0
  8 32  1  0  0  0
  9 29  1  0  0  0
  9 33  1  0  0  0
  9 34  1  0  0  0
 10 11  1  0  0  0
 10 12  2  0  0  0
 10 13  1  0  0  0
 11 17  1  0  0  0
 12 15  1  0  0  0
 13 16  2  0  0  0
 14 15  2  0  0  0
 14 16  1  0  0  0
 18 20  1  0  0  0
 19 21  1  0  0  0
 19 22  2  0  0  0
 19 23  1  0  0  0
 22 25  1  0  0  0
 23 26  2  0  0  0
 24 25  2  0  0  0
 24 26  1  0  0  0
M  END
>  <CHROM.0>
177.02524000,62.79720806,68.12587436

>  <CHROM.1>
-127.04889821,8.58572169,-11.44589062,63.16926423,142.29936769,-169.32911907
74.75146873,-133.76651136,54.13205987,162.60495029,-48.53089812,-2.54213398
17.29183197,-2.87777237,0.50285000,1.58470216

>  <HEADER>
                                                                          

>  <MASTER>
        0    0    0    0    0    0    0    0   52    0   52    0          

>  <Name>
Camostat.pdb

>  <RI>
-3.27748e+08

>  <Rbt.Current_Directory>
/root/miniconda3/envs/rdock/share/rxdock-2013.1.1_148c5bd1-0/data/ligands/prepped_ligands/Camostat

>  <Rbt.Executable>
rbdock/0.1.0

>  <Rbt.Library>
librxdock.so/0.1.0

>  <Rbt.Parameter_File>
/root/miniconda3/envs/rdock/share/rxdock-2013.1.1_148c5bd1-0/data/scripts/dock.prm

>  <Rbt.Receptor>
def.prm

>  <SCORE>
-11.9119

>  <SCORE.INTER>
-7.05093

>  <SCORE.INTER.CONST>
1

>  <SCORE.INTER.POLAR>
-1.46105

>  <SCORE.INTER.REPUL>
0.237615

>  <SCORE.INTER.ROT>
10

>  <SCORE.INTER.VDW>
-18.6714

>  <SCORE.INTER.norm>
-0.243136

>  <SCORE.INTRA>
-4.03699

>  <SCORE.INTRA.DIHEDRAL>
-9.69874

>  <SCORE.INTRA.DIHEDRAL.0>
23.8083

>  <SCORE.INTRA.POLAR>
0

>  <SCORE.INTRA.POLAR.0>
0

>  <SCORE.INTRA.REPUL>
0

>  <SCORE.INTRA.REPUL.0>
0

>  <SCORE.INTRA.VDW>
0.812381

>  <SCORE.INTRA.VDW.0>
-1.22275

>  <SCORE.INTRA.norm>
-0.139206

>  <SCORE.RESTR>
0.0473496

>  <SCORE.RESTR.CAVITY>
0.0473496

>  <SCORE.RESTR.norm>
0.00163275

>  <SCORE.SYSTEM>
-0.871303

>  <SCORE.SYSTEM.CONST>
0

>  <SCORE.SYSTEM.DIHEDRAL>
0.216763

>  <SCORE.SYSTEM.POLAR>
-0.0150341

>  <SCORE.SYSTEM.VDW>
-0.928568

>  <SCORE.SYSTEM.norm>
-0.0300449

>  <SCORE.heavy>
29

>  <SCORE.norm>
-0.410754

>  <TITLE>
    5284360_D                                                             

$$$$
Camostat.pdb
  RxDock  02242110293D
librxdock.so/0.1.0
 34 35  0  0  0  0  0  0  0  0999 V2000
  -51.0493    0.0746   17.0865 O   0  0  0  0  0  0
  -52.9636   -6.6954   17.0542 O   0  0  0  0  0  0
  -54.6775   -5.3627   16.4822 O   0  0  0  0  0  0
  -51.9415   -8.4434   18.8232 O   0  0  0  0  0  0
  -50.2803    0.6518   19.1345 O   0  0  0  0  0  0
  -49.8352   -8.0675   18.0366 N   0  0  0  0  0  0
  -45.1322   -2.2611   16.8513 N   0  0  0  0  0  0
  -43.0561   -3.0851   17.5419 N   0  0  0  0  0  0
  -43.6910   -0.9794   18.2770 N   0  3  0  0  0  0
  -52.1112   -3.7105   15.8317 C   0  0  0  0  0  0
  -52.5226   -5.0976   15.3714 C   0  0  0  0  0  0
  -51.5036   -2.8400   14.9537 C   0  0  0  0  0  0
  -52.3550   -3.3160   17.1296 C   0  0  0  0  0  0
  -51.3855   -1.1827   16.6712 C   0  0  0  0  0  0
  -51.1419   -1.5799   15.3685 C   0  0  0  0  0  0
  -51.9953   -2.0572   17.5498 C   0  0  0  0  0  0
  -53.5167   -5.7022   16.3386 C   0  0  0  0  0  0
  -51.5992   -6.5162   17.4728 C   0  0  0  0  0  0
  -48.7520   -0.4426   17.7271 C   0  0  0  0  0  0
  -51.1448   -7.7747   18.1800 C   0  0  0  0  0  0
  -50.0887    0.1419   18.0418 C   0  0  0  0  0  0
  -48.5402   -1.0668   16.4636 C   0  0  0  0  0  0
  -47.6896   -0.3892   18.6766 C   0  0  0  0  0  0
  -46.2831   -1.6534   17.1481 C   0  0  0  0  0  0
  -47.3675   -1.6392   16.1675 C   0  0  0  0  0  0
  -46.5062   -0.9558   18.4175 C   0  0  0  0  0  0
  -49.2810   -9.2626   18.6859 C   0  0  0  0  0  0
  -48.8918   -7.2265   17.2760 C   0  0  0  0  0  0
  -43.9532   -2.0826   17.5453 C   0  0  0  0  0  0
  -45.1180   -2.8812   16.0665 H   0  0  0  0  0  0
  -43.2439   -3.9223   17.0273 H   0  0  0  0  0  0
  -42.1987   -2.9980   18.0492 H   0  0  0  0  0  0
  -43.4865   -0.1108   17.8288 H   0  0  0  0  0  0
  -43.7214   -1.0216   19.2759 H   0  0  0  0  0  0
  1 14  1  0  0  0
  1 21  1  0  0  0
  2 17  1  0  0  0
  2 18  1  0  0  0
  3 17  2  0  0  0
  4 20  2  0  0  0
  5 21  2  0  0  0
  6 20  1  0  0  0
  6 27  1  0  0  0
  6 28  1  0  0  0
  7 24  1  0  0  0
  7 29  1  0  0  0
  7 30  1  0  0  0
  8 29  2  0  0  0
  8 31  1  0  0  0
  8 32  1  0  0  0
  9 29  1  0  0  0
  9 33  1  0  0  0
  9 34  1  0  0  0
 10 11  1  0  0  0
 10 12  2  0  0  0
 10 13  1  0  0  0
 11 17  1  0  0  0
 12 15  1  0  0  0
 13 16  2  0  0  0
 14 15  2  0  0  0
 14 16  1  0  0  0
 18 20  1  0  0  0
 19 21  1  0  0  0
 19 22  2  0  0  0
 19 23  1  0  0  0
 22 25  1  0  0  0
 23 26  2  0  0  0
 24 25  2  0  0  0
 24 26  1  0  0  0
M  END
>  <CHROM.0>
-62.51566404,-177.30231651,157.43857866

>  <CHROM.1>
-115.36376784,-120.38077986,-141.88285677,-176.37644520,164.35529169,-72.72408150
-162.91614092,-108.35641950,-32.13436978,-1.26029554,-49.61283281,-3.47796095
17.28292046,0.70256961,-0.15043455,-0.09068724

>  <HEADER>
                                                                          

>  <MASTER>
        0    0    0    0    0    0    0    0   52    0   52    0          

>  <Name>
Camostat.pdb

>  <RI>
-3.27748e+08

>  <Rbt.Current_Directory>
/root/miniconda3/envs/rdock/share/rxdock-2013.1.1_148c5bd1-0/data/ligands/prepped_ligands/Camostat

>  <Rbt.Executable>
rbdock/0.1.0

>  <Rbt.Library>
librxdock.so/0.1.0

>  <Rbt.Parameter_File>
/root/miniconda3/envs/rdock/share/rxdock-2013.1.1_148c5bd1-0/data/scripts/dock.prm

>  <Rbt.Receptor>
def.prm

>  <SCORE>
-4.59669

>  <SCORE.INTER>
-14.7654

>  <SCORE.INTER.CONST>
1

>  <SCORE.INTER.POLAR>
-2.88191

>  <SCORE.INTER.REPUL>
0.0053145

>  <SCORE.INTER.ROT>
10

>  <SCORE.INTER.VDW>
-20.3934

>  <SCORE.INTER.norm>
-0.509151

>  <SCORE.INTRA>
10.5596

>  <SCORE.INTRA.DIHEDRAL>
10.9353

>  <SCORE.INTRA.DIHEDRAL.0>
23.8083

>  <SCORE.INTRA.POLAR>
0

>  <SCORE.INTRA.POLAR.0>
0

>  <SCORE.INTRA.REPUL>
0

>  <SCORE.INTRA.REPUL.0>
0

>  <SCORE.INTRA.VDW>
5.09192

>  <SCORE.INTRA.VDW.0>
-1.22275

>  <SCORE.INTRA.norm>
0.364123

>  <SCORE.RESTR>
0

>  <SCORE.RESTR.CAVITY>
0

>  <SCORE.RESTR.norm>
0

>  <SCORE.SYSTEM>
-0.390883

>  <SCORE.SYSTEM.CONST>
0

>  <SCORE.SYSTEM.DIHEDRAL>
1.18436

>  <SCORE.SYSTEM.VDW>
-0.983064

>  <SCORE.SYSTEM.norm>
-0.0134787

>  <SCORE.heavy>
29

>  <SCORE.norm>
-0.158507

>  <TITLE>
    5284360_D                                                             

$$$$
Camostat.pdb
  RxDock  02242110293D
librxdock.so/0.1.0
 34 35  0  0  0  0  0  0  0  0999 V2000
  -44.6284    1.0647   19.3832 O   0  0  0  0  0  0
  -51.4851   -1.2416   18.7997 O   0  0  0  0  0  0
  -50.3074   -0.6812   16.9723 O   0  0  0  0  0  0
  -53.6938   -3.1145   19.5266 O   0  0  0  0  0  0
  -42.7006    0.1205   18.6687 O   0  0  0  0  0  0
  -51.7936   -4.3560   19.7384 N   0  0  0  0  0  0
  -46.9212   -2.8108   14.9178 N   0  0  0  0  0  0
  -48.1898   -2.8827   12.9552 N   0  0  0  0  0  0
  -48.5232   -1.1018   14.4024 N   0  3  0  0  0  0
  -48.7349    0.8450   19.0396 C   0  0  0  0  0  0
  -50.2474    0.7657   18.9345 C   0  0  0  0  0  0
  -48.0660    1.9627   18.5912 C   0  0  0  0  0  0
  -48.0282   -0.2002   19.5945 C   0  0  0  0  0  0
  -45.9864    0.9897   19.2537 C   0  0  0  0  0  0
  -46.6971    2.0383   18.6975 C   0  0  0  0  0  0
  -46.6593   -0.1300   19.7031 C   0  0  0  0  0  0
  -50.6579   -0.4365   18.1127 C   0  0  0  0  0  0
  -51.8240   -2.5004   18.1918 C   0  0  0  0  0  0
  -44.6619   -0.5919   17.5917 C   0  0  0  0  0  0
  -52.5345   -3.3542   19.2198 C   0  0  0  0  0  0
  -43.9143    0.2276   18.5901 C   0  0  0  0  0  0
  -45.5322    0.0537   16.6661 C   0  0  0  0  0  0
  -44.5202   -2.0103   17.5580 C   0  0  0  0  0  0
  -46.1705   -2.1156   15.7752 C   0  0  0  0  0  0
  -46.2502   -0.6557   15.7876 C   0  0  0  0  0  0
  -45.2264   -2.7521   16.6979 C   0  0  0  0  0  0
  -52.3782   -5.2447   20.7511 C   0  0  0  0  0  0
  -50.3876   -4.6043   19.3682 C   0  0  0  0  0  0
  -47.8981   -2.2622   14.1126 C   0  0  0  0  0  0
  -46.7747   -3.7985   14.8601 H   0  0  0  0  0  0
  -47.7179   -3.7301   12.7096 H   0  0  0  0  0  0
  -48.8793   -2.5037   12.3381 H   0  0  0  0  0  0
  -48.4272   -0.3105   13.8009 H   0  0  0  0  0  0
  -49.1052   -1.0350   15.2131 H   0  0  0  0  0  0
  1 14  1  0  0  0
  1 21  1  0  0  0
  2 17  1  0  0  0
  2 18  1  0  0  0
  3 17  2  0  0  0
  4 20  2  0  0  0
  5 21  2  0  0  0
  6 20  1  0  0  0
  6 27  1  0  0  0
  6 28  1  0  0  0
  7 24  1  0  0  0
  7 29  1  0  0  0
  7 30  1  0  0  0
  8 29  2  0  0  0
  8 31  1  0  0  0
  8 32  1  0  0  0
  9 29  1  0  0  0
  9 33  1  0  0  0
  9 34  1  0  0  0
 10 11  1  0  0  0
 10 12  2  0  0  0
 10 13  1  0  0  0
 11 17  1  0  0  0
 12 15  1  0  0  0
 13 16  2  0  0  0
 14 15  2  0  0  0
 14 16  1  0  0  0
 18 20  1  0  0  0
 19 21  1  0  0  0
 19 22  2  0  0  0
 19 23  1  0  0  0
 22 25  1  0  0  0
 23 26  2  0  0  0
 24 25  2  0  0  0
 24 26  1  0  0  0
M  END
>  <CHROM.0>
-65.21343874,59.32945057,63.64363121

>  <CHROM.1>
-111.37762503,-174.67054117,7.18519124,169.37010218,-7.28649022,116.48035057
121.56286515,123.52500704,74.82260727,54.19746656,-48.17526597,-1.26232668
17.83318997,0.03024015,0.44811218,1.04104360

>  <HEADER>
                                                                          

>  <MASTER>
        0    0    0    0    0    0    0    0   52    0   52    0          

>  <Name>
Camostat.pdb

>  <RI>
-3.27748e+08

>  <Rbt.Current_Directory>
/root/miniconda3/envs/rdock/share/rxdock-2013.1.1_148c5bd1-0/data/ligands/prepped_ligands/Camostat

>  <Rbt.Executable>
rbdock/0.1.0

>  <Rbt.Library>
librxdock.so/0.1.0

>  <Rbt.Parameter_File>
/root/miniconda3/envs/rdock/share/rxdock-2013.1.1_148c5bd1-0/data/scripts/dock.prm

>  <Rbt.Receptor>
def.prm

>  <SCORE>
-16.4241

>  <SCORE.INTER>
-9.61335

>  <SCORE.INTER.CONST>
1

>  <SCORE.INTER.POLAR>
-2.23324

>  <SCORE.INTER.REPUL>
0.0225485

>  <SCORE.INTER.ROT>
10

>  <SCORE.INTER.VDW>
-17.5331

>  <SCORE.INTER.norm>
-0.331495

>  <SCORE.INTRA>
-5.93206

>  <SCORE.INTRA.DIHEDRAL>
-6.07927

>  <SCORE.INTRA.DIHEDRAL.0>
23.8083

>  <SCORE.INTRA.POLAR>
-1.21481

>  <SCORE.INTRA.POLAR.0>
0

>  <SCORE.INTRA.REPUL>
0.0864479

>  <SCORE.INTRA.REPUL.0>
0

>  <SCORE.INTRA.VDW>
0.805694

>  <SCORE.INTRA.VDW.0>
-1.22275

>  <SCORE.INTRA.norm>
-0.204554

>  <SCORE.RESTR>
0

>  <SCORE.RESTR.CAVITY>
0

>  <SCORE.RESTR.norm>
0

>  <SCORE.SYSTEM>
-0.8787

>  <SCORE.SYSTEM.CONST>
0

>  <SCORE.SYSTEM.DIHEDRAL>
0.102573

>  <SCORE.SYSTEM.POLAR>
-0.00872717

>  <SCORE.SYSTEM.VDW>
-0.900315

>  <SCORE.SYSTEM.norm>
-0.0303

>  <SCORE.heavy>
29

>  <SCORE.norm>
-0.566349

>  <TITLE>
    5284360_D                                                             

$$$$
Camostat.pdb
  RxDock  02242110293D
librxdock.so/0.1.0
 34 35  0  0  0  0  0  0  0  0999 V2000
  -53.3914   -3.7621   14.8799 O   0  0  0  0  0  0
  -47.9696   -0.5282   17.8215 O   0  0  0  0  0  0
  -47.1573   -1.7121   16.0955 O   0  0  0  0  0  0
  -47.4775   -1.2539   20.9295 O   0  0  0  0  0  0
  -54.8541   -4.8000   16.2590 O   0  0  0  0  0  0
  -46.8560    0.8277   20.2386 N   0  0  0  0  0  0
  -49.4363   -7.0267   18.6663 N   0  0  0  0  0  0
  -47.2936   -7.9617   18.6948 N   0  0  0  0  0  0
  -48.7711   -8.6752   17.0561 N   0  3  0  0  0  0
  -50.2235   -1.1971   15.5239 C   0  0  0  0  0  0
  -49.0690   -0.2376   15.7512 C   0  0  0  0  0  0
  -50.9763   -1.6413   16.5887 C   0  0  0  0  0  0
  -50.5268   -1.6180   14.2470 C   0  0  0  0  0  0
  -52.3342   -2.9250   15.0992 C   0  0  0  0  0  0
  -52.0289   -2.5012   16.3803 C   0  0  0  0  0  0
  -51.5782   -2.4779   14.0328 C   0  0  0  0  0  0
  -47.9658   -0.9143   16.5349 C   0  0  0  0  0  0
  -46.8813   -0.9861   18.6430 C   0  0  0  0  0  0
  -52.5831   -5.2875   16.6048 C   0  0  0  0  0  0
  -47.1021   -0.4864   20.0545 C   0  0  0  0  0  0
  -53.7041   -4.5960   15.9029 C   0  0  0  0  0  0
  -52.6894   -5.5552   18.0004 C   0  0  0  0  0  0
  -51.4077   -5.6763   15.8975 C   0  0  0  0  0  0
  -50.4437   -6.4844   17.9784 C   0  0  0  0  0  0
  -51.6843   -6.1337   18.6681 C   0  0  0  0  0  0
  -50.3809   -6.2510   16.5330 C   0  0  0  0  0  0
  -47.0439    1.4244   21.5674 C   0  0  0  0  0  0
  -46.4296    1.7353   19.1568 C   0  0  0  0  0  0
  -48.5178   -7.9111   18.1393 C   0  0  0  0  0  0
  -49.3445   -6.7851   19.6325 H   0  0  0  0  0  0
  -47.0776   -7.3832   19.4821 H   0  0  0  0  0  0
  -46.5967   -8.5775   18.3274 H   0  0  0  0  0  0
  -48.0246   -8.9913   16.4731 H   0  0  0  0  0  0
  -49.7098   -8.9475   16.8434 H   0  0  0  0  0  0
  1 14  1  0  0  0
  1 21  1  0  0  0
  2 17  1  0  0  0
  2 18  1  0  0  0
  3 17  2  0  0  0
  4 20  2  0  0  0
  5 21  2  0  0  0
  6 20  1  0  0  0
  6 27  1  0  0  0
  6 28  1  0  0  0
  7 24  1  0  0  0
  7 29  1  0  0  0
  7 30  1  0  0  0
  8 29  2  0  0  0
  8 31  1  0  0  0
  8 32  1  0  0  0
  9 29  1  0  0  0
  9 33  1  0  0  0
  9 34  1  0  0  0
 10 11  1  0  0  0
 10 12  2  0  0  0
 10 13  1  0  0  0
 11 17  1  0  0  0
 12 15  1  0  0  0
 13 16  2  0  0  0
 14 15  2  0  0  0
 14 16  1  0  0  0
 18 20  1  0  0  0
 19 21  1  0  0  0
 19 22  2  0  0  0
 19 23  1  0  0  0
 22 25  1  0  0  0
 23 26  2  0  0  0
 24 25  2  0  0  0
 24 26  1  0  0  0
M  END
>  <CHROM.0>
-43.37050574,-68.46751553,157.66183815

>  <CHROM.1>
-28.97047671,136.49651800,6.58743978,-177.92682698,149.73652854,153.59343151
66.55302172,-102.93088037,105.30023079,146.46772570,-49.80865780,-3.24485436
17.36525037,2.36626733,0.66543157,2.97769503

>  <HEADER>
                                                                          

>  <MASTER>
        0    0    0    0    0    0    0    0   52    0   52    0          

>  <Name>
Camostat.pdb

>  <RI>
-3.27748e+08

>  <Rbt.Current_Directory>
/root/miniconda3/envs/rdock/share/rxdock-2013.1.1_148c5bd1-0/data/ligands/prepped_ligands/Camostat

>  <Rbt.Executable>
rbdock/0.1.0

>  <Rbt.Library>
librxdock.so/0.1.0

>  <Rbt.Parameter_File>
/root/miniconda3/envs/rdock/share/rxdock-2013.1.1_148c5bd1-0/data/scripts/dock.prm

>  <Rbt.Receptor>
def.prm

>  <SCORE>
-12.1122

>  <SCORE.INTER>
-12.5699

>  <SCORE.INTER.CONST>
1

>  <SCORE.INTER.POLAR>
-2.22219

>  <SCORE.INTER.REPUL>
0.0171883

>  <SCORE.INTER.ROT>
10

>  <SCORE.INTER.VDW>
-20.5004

>  <SCORE.INTER.norm>
-0.433446

>  <SCORE.INTRA>
0.355476

>  <SCORE.INTRA.DIHEDRAL>
-0.549066

>  <SCORE.INTRA.DIHEDRAL.0>
23.8083

>  <SCORE.INTRA.POLAR>
0

>  <SCORE.INTRA.POLAR.0>
0

>  <SCORE.INTRA.REPUL>
0

>  <SCORE.INTRA.REPUL.0>
0

>  <SCORE.INTRA.VDW>
0.630009

>  <SCORE.INTRA.VDW.0>
-1.22275

>  <SCORE.INTRA.norm>
0.0122578

>  <SCORE.RESTR>
0

>  <SCORE.RESTR.CAVITY>
0

>  <SCORE.RESTR.norm>
0

>  <SCORE.SYSTEM>
0.102235

>  <SCORE.SYSTEM.CONST>
0

>  <SCORE.SYSTEM.DIHEDRAL>
2.08911

>  <SCORE.SYSTEM.VDW>
-0.94232

>  <SCORE.SYSTEM.norm>
0.00352534

>  <SCORE.heavy>
29

>  <SCORE.norm>
-0.417663

>  <TITLE>
    5284360_D                                                             

$$$$
Camostat.pdb
  RxDock  02242110293D
librxdock.so/0.1.0
 34 35  0  0  0  0  0  0  0  0999 V2000
  -50.1478   -1.4325   17.1753 O   0  0  0  0  0  0
  -52.6152   -6.6136   16.7307 O   0  0  0  0  0  0
  -54.7396   -7.2979   16.4876 O   0  0  0  0  0  0
  -50.0052   -7.7459   17.0156 O   0  0  0  0  0  0
  -48.5969   -3.0586   16.9117 O   0  0  0  0  0  0
  -50.6203   -7.8025   19.2099 N   0  0  0  0  0  0
  -44.7927    1.8342   18.2538 N   0  0  0  0  0  0
  -42.5290    2.4167   18.2997 N   0  0  0  0  0  0
  -43.1514    0.3915   19.2424 N   0  3  0  0  0  0
  -53.0056   -4.1541   15.9690 C   0  0  0  0  0  0
  -54.0416   -5.1700   15.5220 C   0  0  0  0  0  0
  -52.9413   -3.7636   17.2885 C   0  0  0  0  0  0
  -52.1193   -3.6275   15.0543 C   0  0  0  0  0  0
  -51.1051   -2.3223   16.7773 C   0  0  0  0  0  0
  -51.9951   -2.8522   17.6945 C   0  0  0  0  0  0
  -51.1712   -2.7156   15.4547 C   0  0  0  0  0  0
  -53.8732   -6.4667   16.2833 C   0  0  0  0  0  0
  -52.3318   -7.7922   17.5051 C   0  0  0  0  0  0
  -47.7813   -0.9392   17.5093 C   0  0  0  0  0  0
  -50.8665   -7.7772   17.8832 C   0  0  0  0  0  0
  -48.8742   -1.8992   17.1759 C   0  0  0  0  0  0
  -48.1067    0.4139   17.8159 C   0  0  0  0  0  0
  -46.4184   -1.3583   17.5181 C   0  0  0  0  0  0
  -45.7391    0.9199   18.0289 C   0  0  0  0  0  0
  -47.1474    1.3099   18.0758 C   0  0  0  0  0  0
  -45.4330   -0.4892   17.7673 C   0  0  0  0  0  0
  -49.2333   -7.7985   19.6932 C   0  0  0  0  0  0
  -51.6804   -7.8673   20.2334 C   0  0  0  0  0  0
  -43.4970    1.5415   18.6264 C   0  0  0  0  0  0
  -45.0396    2.7985   18.1560 H   0  0  0  0  0  0
  -42.7614    3.2628   17.8189 H   0  0  0  0  0  0
  -41.5760    2.2286   18.5375 H   0  0  0  0  0  0
  -43.7876   -0.0608   19.8652 H   0  0  0  0  0  0
  -42.2609   -0.0263   19.0608 H   0  0  0  0  0  0
  1 14  1  0  0  0
  1 21  1  0  0  0
  2 17  1  0  0  0
  2 18  1  0  0  0
  3 17  2  0  0  0
  4 20  2  0  0  0
  5 21  2  0  0  0
  6 20  1  0  0  0
  6 27  1  0  0  0
  6 28  1  0  0  0
  7 24  1  0  0  0
  7 29  1  0  0  0
  7 30  1  0  0  0
  8 29  2  0  0  0
  8 31  1  0  0  0
  8 32  1  0  0  0
  9 29  1  0  0  0
  9 33  1  0  0  0
  9 34  1  0  0  0
 10 11  1  0  0  0
 10 12  2  0  0  0
 10 13  1  0  0  0
 11 17  1  0  0  0
 12 15  1  0  0  0
 13 16  2  0  0  0
 14 15  2  0  0  0
 14 16  1  0  0  0
 18 20  1  0  0  0
 19 21  1  0  0  0
 19 22  2  0  0  0
 19 23  1  0  0  0
 22 25  1  0  0  0
 23 26  2  0  0  0
 24 25  2  0  0  0
 24 26  1  0  0  0
M  END
>  <CHROM.0>
55.19561918,-179.00694270,-56.29544893

>  <CHROM.1>
108.92494089,-3.94081566,-1.67592298,178.88154267,159.83929611,-32.41021981
-58.73587526,-24.81853825,-58.77838534,0.21855499,-49.44224994,-3.24322013
17.51824849,0.67662745,-0.43394640,-0.35396191

>  <HEADER>
                                                                          

>  <MASTER>
        0    0    0    0    0    0    0    0   52    0   52    0          

>  <Name>
Camostat.pdb

>  <RI>
-3.27748e+08

>  <Rbt.Current_Directory>
/root/miniconda3/envs/rdock/share/rxdock-2013.1.1_148c5bd1-0/data/ligands/prepped_ligands/Camostat

>  <Rbt.Executable>
rbdock/0.1.0

>  <Rbt.Library>
librxdock.so/0.1.0

>  <Rbt.Parameter_File>
/root/miniconda3/envs/rdock/share/rxdock-2013.1.1_148c5bd1-0/data/scripts/dock.prm

>  <Rbt.Receptor>
def.prm

>  <SCORE>
-13.7472

>  <SCORE.INTER>
-6.75704

>  <SCORE.INTER.CONST>
1

>  <SCORE.INTER.POLAR>
-0.154297

>  <SCORE.INTER.REPUL>
0

>  <SCORE.INTER.ROT>
10

>  <SCORE.INTER.VDW>
-21.6324

>  <SCORE.INTER.norm>
-0.233001

>  <SCORE.INTRA>
-5.98573

>  <SCORE.INTRA.DIHEDRAL>
-14.1742

>  <SCORE.INTRA.DIHEDRAL.0>
23.8083

>  <SCORE.INTRA.POLAR>
0

>  <SCORE.INTRA.POLAR.0>
0

>  <SCORE.INTRA.REPUL>
0

>  <SCORE.INTRA.REPUL.0>
0

>  <SCORE.INTRA.VDW>
1.10135

>  <SCORE.INTRA.VDW.0>
-1.22275

>  <SCORE.INTRA.norm>
-0.206405

>  <SCORE.RESTR>
0

>  <SCORE.RESTR.CAVITY>
0

>  <SCORE.RESTR.norm>
0

>  <SCORE.SYSTEM>
-1.00441

>  <SCORE.SYSTEM.CONST>
0

>  <SCORE.SYSTEM.DIHEDRAL>
0.0959817

>  <SCORE.SYSTEM.POLAR>
-0.00912034

>  <SCORE.SYSTEM.VDW>
-1.02139

>  <SCORE.SYSTEM.norm>
-0.0346348

>  <SCORE.heavy>
29

>  <SCORE.norm>
-0.474041

>  <TITLE>
    5284360_D                                                             

$$$$
Camostat.pdb
  RxDock  02242110293D
librxdock.so/0.1.0
 34 35  0  0  0  0  0  0  0  0999 V2000
  -48.4865   -3.0466   14.3571 O   0  0  0  0  0  0
  -48.0861    0.8528   18.6639 O   0  0  0  0  0  0
  -47.8344    0.4792   20.8634 O   0  0  0  0  0  0
  -45.2833    1.6671   20.1945 O   0  0  0  0  0  0
  -49.6552   -4.1215   12.7454 O   0  0  0  0  0  0
  -45.2348    0.5825   18.1900 N   0  0  0  0  0  0
  -51.7979   -7.3524   17.7305 N   0  0  0  0  0  0
  -51.5644   -8.6535   19.6589 N   0  0  0  0  0  0
  -49.8962   -8.7777   18.0530 N   0  3  0  0  0  0
  -49.0768   -1.5490   18.1569 C   0  0  0  0  0  0
  -49.2794   -0.9826   19.5509 C   0  0  0  0  0  0
  -50.0729   -1.4387   17.2117 C   0  0  0  0  0  0
  -47.8886   -2.1671   17.8316 C   0  0  0  0  0  0
  -48.6918   -2.5629   15.6183 C   0  0  0  0  0  0
  -49.8838   -1.9418   15.9460 C   0  0  0  0  0  0
  -47.6941   -2.6721   16.5676 C   0  0  0  0  0  0
  -48.3323    0.1717   19.7953 C   0  0  0  0  0  0
  -47.1514    1.9428   18.7491 C   0  0  0  0  0  0
  -50.0552   -4.8189   14.9517 C   0  0  0  0  0  0
  -45.7948    1.3840   19.1204 C   0  0  0  0  0  0
  -49.3851   -3.9667   13.9260 C   0  0  0  0  0  0
  -49.2890   -5.3528   16.0281 C   0  0  0  0  0  0
  -51.4484   -5.1093   14.8630 C   0  0  0  0  0  0
  -51.2623   -6.5200   16.8348 C   0  0  0  0  0  0
  -49.8500   -6.1562   16.9394 C   0  0  0  0  0  0
  -52.0416   -5.9131   15.7522 C   0  0  0  0  0  0
  -43.9147   -0.0108   18.4396 C   0  0  0  0  0  0
  -45.8644    0.2803   16.8908 C   0  0  0  0  0  0
  -51.0832   -8.2805   18.4594 C   0  0  0  0  0  0
  -52.7863   -7.3094   17.8784 H   0  0  0  0  0  0
  -52.4297   -8.2755   19.9899 H   0  0  0  0  0  0
  -51.0635   -9.3102   20.2227 H   0  0  0  0  0  0
  -49.0848   -8.6860   18.6278 H   0  0  0  0  0  0
  -49.8278   -9.2614   17.1802 H   0  0  0  0  0  0
  1 14  1  0  0  0
  1 21  1  0  0  0
  2 17  1  0  0  0
  2 18  1  0  0  0
  3 17  2  0  0  0
  4 20  2  0  0  0
  5 21  2  0  0  0
  6 20  1  0  0  0
  6 27  1  0  0  0
  6 28  1  0  0  0
  7 24  1  0  0  0
  7 29  1  0  0  0
  7 30  1  0  0  0
  8 29  2  0  0  0
  8 31  1  0  0  0
  8 32  1  0  0  0
  9 29  1  0  0  0
  9 33  1  0  0  0
  9 34  1  0  0  0
 10 11  1  0  0  0
 10 12  2  0  0  0
 10 13  1  0  0  0
 11 17  1  0  0  0
 12 15  1  0  0  0
 13 16  2  0  0  0
 14 15  2  0  0  0
 14 16  1  0  0  0
 18 20  1  0  0  0
 19 21  1  0  0  0
 19 22  2  0  0  0
 19 23  1  0  0  0
 22 25  1  0  0  0
 23 26  2  0  0  0
 24 25  2  0  0  0
 24 26  1  0  0  0
M  END
>  <CHROM.0>
175.84759368,-61.08081474,-58.63094257

>  <CHROM.1>
-58.04435828,152.05526027,2.65209779,63.79053215,-24.71245779,122.36803741
-113.78401628,32.40971763,-114.47231763,-42.11305488,-48.77371223,-2.86831423
17.36165599,-2.96448084,1.04894940,1.64523413

>  <HEADER>
                                                                          

>  <MASTER>
        0    0    0    0    0    0    0    0   52    0   52    0          

>  <Name>
Camostat.pdb

>  <RI>
-3.27748e+08

>  <Rbt.Current_Directory>
/root/miniconda3/envs/rdock/share/rxdock-2013.1.1_148c5bd1-0/data/ligands/prepped_ligands/Camostat

>  <Rbt.Executable>
rbdock/0.1.0

>  <Rbt.Library>
librxdock.so/0.1.0

>  <Rbt.Parameter_File>
/root/miniconda3/envs/rdock/share/rxdock-2013.1.1_148c5bd1-0/data/scripts/dock.prm

>  <Rbt.Receptor>
def.prm

>  <SCORE>
-3.79358

>  <SCORE.INTER>
-1.09931

>  <SCORE.INTER.CONST>
1

>  <SCORE.INTER.POLAR>
0

>  <SCORE.INTER.REPUL>
0.323809

>  <SCORE.INTER.ROT>
10

>  <SCORE.INTER.VDW>
-18.1184

>  <SCORE.INTER.norm>
-0.0379072

>  <SCORE.INTRA>
-1.66168

>  <SCORE.INTRA.DIHEDRAL>
-3.46607

>  <SCORE.INTRA.DIHEDRAL.0>
23.8083

>  <SCORE.INTRA.POLAR>
0

>  <SCORE.INTRA.POLAR.0>
0

>  <SCORE.INTRA.REPUL>
0

>  <SCORE.INTRA.REPUL.0>
0

>  <SCORE.INTRA.VDW>
0.0713508

>  <SCORE.INTRA.VDW.0>
-1.22275

>  <SCORE.INTRA.norm>
-0.0572995

>  <SCORE.RESTR>
0

>  <SCORE.RESTR.CAVITY>
0

>  <SCORE.RESTR.norm>
0

>  <SCORE.SYSTEM>
-1.03259

>  <SCORE.SYSTEM.CONST>
0

>  <SCORE.SYSTEM.DIHEDRAL>
0.0548907

>  <SCORE.SYSTEM.POLAR>
-0.00416199

>  <SCORE.SYSTEM.VDW>
-1.04588

>  <SCORE.SYSTEM.norm>
-0.0356065

>  <SCORE.heavy>
29

>  <SCORE.norm>
-0.130813

>  <TITLE>
    5284360_D                                                             

$$$$
Camostat.pdb
  RxDock  02242110293D
librxdock.so/0.1.0
 34 35  0  0  0  0  0  0  0  0999 V2000
  -43.7109    0.1822   19.5198 O   0  0  0  0  0  0
  -49.1573   -0.5605   17.5729 O   0  0  0  0  0  0
  -50.7817    0.9799   17.4025 O   0  0  0  0  0  0
  -51.1664   -2.1556   18.0318 O   0  0  0  0  0  0
  -42.0152   -0.7342   18.3351 O   0  0  0  0  0  0
  -51.4842   -2.7434   15.8523 N   0  0  0  0  0  0
  -47.0076   -2.9103   15.0602 N   0  0  0  0  0  0
  -48.0095   -2.9527   12.9482 N   0  0  0  0  0  0
  -47.6021   -0.8864   13.9187 N   0  3  0  0  0  0
  -47.7903    0.7924   19.3979 C   0  0  0  0  0  0
  -49.2917    1.0093   19.3328 C   0  0  0  0  0  0
  -47.2659   -0.1908   20.2078 C   0  0  0  0  0  0
  -46.9488    1.5748   18.6367 C   0  0  0  0  0  0
  -45.0608    0.3909   19.4940 C   0  0  0  0  0  0
  -45.9068   -0.3941   20.2570 C   0  0  0  0  0  0
  -45.5889    1.3760   18.6822 C   0  0  0  0  0  0
  -49.8417    0.5071   18.0158 C   0  0  0  0  0  0
  -49.6814   -1.2376   16.4172 C   0  0  0  0  0  0
  -44.1855   -1.2414   17.5954 C   0  0  0  0  0  0
  -50.8532   -2.0914   16.8515 C   0  0  0  0  0  0
  -43.2130   -0.5762   18.5115 C   0  0  0  0  0  0
  -44.3813   -0.7202   16.2836 C   0  0  0  0  0  0
  -44.9234   -2.3854   18.0193 C   0  0  0  0  0  0
  -46.0917   -2.4006   15.8869 C   0  0  0  0  0  0
  -45.2775   -1.2662   15.4534 C   0  0  0  0  0  0
  -45.8317   -2.9536   17.2189 C   0  0  0  0  0  0
  -52.6317   -3.6077   16.1577 C   0  0  0  0  0  0
  -51.0665   -2.6677   14.4397 C   0  0  0  0  0  0
  -47.5578   -2.2333   13.9913 C   0  0  0  0  0  0
  -47.3261   -3.8431   15.2308 H   0  0  0  0  0  0
  -47.9608   -3.9518   12.9714 H   0  0  0  0  0  0
  -48.3977   -2.4948   12.1484 H   0  0  0  0  0  0
  -48.2433   -0.3693   14.4831 H   0  0  0  0  0  0
  -46.9754   -0.3964   13.3124 H   0  0  0  0  0  0
  1 14  1  0  0  0
  1 21  1  0  0  0
  2 17  1  0  0  0
  2 18  1  0  0  0
  3 17  2  0  0  0
  4 20  2  0  0  0
  5 21  2  0  0  0
  6 20  1  0  0  0
  6 27  1  0  0  0
  6 28  1  0  0  0
  7 24  1  0  0  0
  7 29  1  0  0  0
  7 30  1  0  0  0
  8 29  2  0  0  0
  8 31  1  0  0  0
  8 32  1  0  0  0
  9 29  1  0  0  0
  9 33  1  0  0  0
  9 34  1  0  0  0
 10 11  1  0  0  0
 10 12  2  0  0  0
 10 13  1  0  0  0
 11 17  1  0  0  0
 12 15  1  0  0  0
 13 16  2  0  0  0
 14 15  2  0  0  0
 14 16  1  0  0  0
 18 20  1  0  0  0
 19 21  1  0  0  0
 19 22  2  0  0  0
 19 23  1  0  0  0
 22 25  1  0  0  0
 23 26  2  0  0  0
 24 25  2  0  0  0
 24 26  1  0  0  0
M  END
>  <CHROM.0>
161.83702165,-64.69621246,173.40139471

>  <CHROM.1>
97.18496170,172.60778280,-7.56979660,-77.38953249,-21.11644685,-73.60194077
-107.04993765,33.06049541,-2.85813875,105.05712629,-47.47277224,-1.06438387
17.16533126,0.47894524,0.00236568,0.99367250

>  <HEADER>
                                                                          

>  <MASTER>
        0    0    0    0    0    0    0    0   52    0   52    0          

>  <Name>
Camostat.pdb

>  <RI>
-3.27748e+08

>  <Rbt.Current_Directory>
/root/miniconda3/envs/rdock/share/rxdock-2013.1.1_148c5bd1-0/data/ligands/prepped_ligands/Camostat

>  <Rbt.Executable>
rbdock/0.1.0

>  <Rbt.Library>
librxdock.so/0.1.0

>  <Rbt.Parameter_File>
/root/miniconda3/envs/rdock/share/rxdock-2013.1.1_148c5bd1-0/data/scripts/dock.prm

>  <Rbt.Receptor>
def.prm

>  <SCORE>
-16.515

>  <SCORE.INTER>
-14.2701

>  <SCORE.INTER.CONST>
1

>  <SCORE.INTER.POLAR>
-3.08302

>  <SCORE.INTER.REPUL>
0.136228

>  <SCORE.INTER.ROT>
10

>  <SCORE.INTER.VDW>
-19.869

>  <SCORE.INTER.norm>
-0.492072

>  <SCORE.INTRA>
-1.73992

>  <SCORE.INTRA.DIHEDRAL>
0.399424

>  <SCORE.INTRA.DIHEDRAL.0>
23.8083

>  <SCORE.INTRA.POLAR>
0

>  <SCORE.INTRA.POLAR.0>
0

>  <SCORE.INTRA.REPUL>
0

>  <SCORE.INTRA.REPUL.0>
0

>  <SCORE.INTRA.VDW>
-1.93963

>  <SCORE.INTRA.VDW.0>
-1.22275

>  <SCORE.INTRA.norm>
-0.0599973

>  <SCORE.RESTR>
0

>  <SCORE.RESTR.CAVITY>
0

>  <SCORE.RESTR.norm>
0

>  <SCORE.SYSTEM>
-0.505008

>  <SCORE.SYSTEM.CONST>
0

>  <SCORE.SYSTEM.DIHEDRAL>
0.986032

>  <SCORE.SYSTEM.VDW>
-0.998024

>  <SCORE.SYSTEM.norm>
-0.0174141

>  <SCORE.heavy>
29

>  <SCORE.norm>
-0.569483

>  <TITLE>
    5284360_D                                                             

$$$$
Camostat.pdb
  RxDock  02242110293D
librxdock.so/0.1.0
 34 35  0  0  0  0  0  0  0  0999 V2000
  -49.5870   -2.5821   15.7170 O   0  0  0  0  0  0
  -52.8724   -7.0846   16.9644 O   0  0  0  0  0  0
  -54.3184   -8.3971   15.8567 O   0  0  0  0  0  0
  -51.9074   -7.1566   19.7609 O   0  0  0  0  0  0
  -48.5943   -3.3511   13.8349 O   0  0  0  0  0  0
  -50.1470   -7.9931   18.5785 N   0  0  0  0  0  0
  -43.3769   -1.6332   16.9405 N   0  0  0  0  0  0
  -41.9654   -1.0927   18.7241 N   0  0  0  0  0  0
  -43.9269    0.1201   18.4818 N   0  3  0  0  0  0
  -52.7849   -5.1497   15.2587 C   0  0  0  0  0  0
  -53.9557   -6.1046   15.1082 C   0  0  0  0  0  0
  -53.0046   -3.8274   15.5761 C   0  0  0  0  0  0
  -51.4966   -5.6087   15.0873 C   0  0  0  0  0  0
  -50.6492   -3.4252   15.5513 C   0  0  0  0  0  0
  -51.9429   -2.9661   15.7237 C   0  0  0  0  0  0
  -50.4312   -4.7518   15.2334 C   0  0  0  0  0  0
  -53.7613   -7.3218   15.9856 C   0  0  0  0  0  0
  -52.3815   -8.2254   17.6901 C   0  0  0  0  0  0
  -47.1620   -2.4637   15.4706 C   0  0  0  0  0  0
  -51.4561   -7.7368   18.7835 C   0  0  0  0  0  0
  -48.5055   -2.8379   14.9394 C   0  0  0  0  0  0
  -46.0095   -2.6461   14.6525 C   0  0  0  0  0  0
  -47.0186   -1.9331   16.7863 C   0  0  0  0  0  0
  -44.6068   -1.8765   16.4821 C   0  0  0  0  0  0
  -44.7862   -2.3620   15.1146 C   0  0  0  0  0  0
  -45.8114   -1.6436   17.2836 C   0  0  0  0  0  0
  -49.1558   -7.5578   19.5711 C   0  0  0  0  0  0
  -49.6292   -8.6719   17.3757 C   0  0  0  0  0  0
  -43.0937   -0.8431   18.0355 C   0  0  0  0  0  0
  -42.6052   -2.0422   16.4528 H   0  0  0  0  0  0
  -41.3476   -1.8206   18.4248 H   0  0  0  0  0  0
  -41.7372   -0.5521   19.5339 H   0  0  0  0  0  0
  -44.5137    0.6176   17.8451 H   0  0  0  0  0  0
  -43.9765    0.3264   19.4593 H   0  0  0  0  0  0
  1 14  1  0  0  0
  1 21  1  0  0  0
  2 17  1  0  0  0
  2 18  1  0  0  0
  3 17  2  0  0  0
  4 20  2  0  0  0
  5 21  2  0  0  0
  6 20  1  0  0  0
  6 27  1  0  0  0
  6 28  1  0  0  0
  7 24  1  0  0  0
  7 29  1  0  0  0
  7 30  1  0  0  0
  8 29  2  0  0  0
  8 31  1  0  0  0
  8 32  1  0  0  0
  9 29  1  0  0  0
  9 33  1  0  0  0
  9 34  1  0  0  0
 10 11  1  0  0  0
 10 12  2  0  0  0
 10 13  1  0  0  0
 11 17  1  0  0  0
 12 15  1  0  0  0
 13 16  2  0  0  0
 14 15  2  0  0  0
 14 16  1  0  0  0
 18 20  1  0  0  0
 19 21  1  0  0  0
 19 22  2  0  0  0
 19 23  1  0  0  0
 22 25  1  0  0  0
 23 26  2  0  0  0
 24 25  2  0  0  0
 24 26  1  0  0  0
M  END
>  <CHROM.0>
60.30714313,64.42644174,178.23081745

>  <CHROM.1>
-148.13692683,29.52968492,12.89541053,-177.12917746,161.04408658,-31.27513009
-126.64781559,19.66603836,71.54610548,-176.43636136,-49.10661011,-4.42983935
16.62775169,0.39568037,-0.46301717,-0.76460836

>  <HEADER>
                                                                          

>  <MASTER>
        0    0    0    0    0    0    0    0   52    0   52    0          

>  <Name>
Camostat.pdb

>  <RI>
-3.27748e+08

>  <Rbt.Current_Directory>
/root/miniconda3/envs/rdock/share/rxdock-2013.1.1_148c5bd1-0/data/ligands/prepped_ligands/Camostat

>  <Rbt.Executable>
rbdock/0.1.0

>  <Rbt.Library>
librxdock.so/0.1.0

>  <Rbt.Parameter_File>
/root/miniconda3/envs/rdock/share/rxdock-2013.1.1_148c5bd1-0/data/scripts/dock.prm

>  <Rbt.Receptor>
def.prm

>  <SCORE>
-14.9097

>  <SCORE.INTER>
-11.1954

>  <SCORE.INTER.CONST>
1

>  <SCORE.INTER.POLAR>
-0.723966

>  <SCORE.INTER.REPUL>
0.0519206

>  <SCORE.INTER.ROT>
10

>  <SCORE.INTER.VDW>
-24.3935

>  <SCORE.INTER.norm>
-0.386048

>  <SCORE.INTRA>
-2.6836

>  <SCORE.INTRA.DIHEDRAL>
-10.5347

>  <SCORE.INTRA.DIHEDRAL.0>
23.8083

>  <SCORE.INTRA.POLAR>
0

>  <SCORE.INTRA.POLAR.0>
0

>  <SCORE.INTRA.REPUL>
0

>  <SCORE.INTRA.REPUL.0>
0

>  <SCORE.INTRA.VDW>
2.58373

>  <SCORE.INTRA.VDW.0>
-1.22275

>  <SCORE.INTRA.norm>
-0.0925381

>  <SCORE.RESTR>
0

>  <SCORE.RESTR.CAVITY>
0

>  <SCORE.RESTR.norm>
0

>  <SCORE.SYSTEM>
-1.03068

>  <SCORE.SYSTEM.CONST>
0

>  <SCORE.SYSTEM.DIHEDRAL>
0.105622

>  <SCORE.SYSTEM.VDW>
-1.08349

>  <SCORE.SYSTEM.norm>
-0.0355407

>  <SCORE.heavy>
29

>  <SCORE.norm>
-0.514127

>  <TITLE>
    5284360_D                                                             

$$$$
Camostat.pdb
  RxDock  02242110293D
librxdock.so/0.1.0
 34 35  0  0  0  0  0  0  0  0999 V2000
  -47.7546   -5.6768   18.2280 O   0  0  0  0  0  0
  -48.0319    0.2657   17.3044 O   0  0  0  0  0  0
  -50.0845    1.1683   17.1915 O   0  0  0  0  0  0
  -45.4305    0.7710   17.5365 O   0  0  0  0  0  0
  -48.3189   -7.8318   18.6234 O   0  0  0  0  0  0
  -45.6910    1.6904   19.6062 N   0  0  0  0  0  0
  -53.4697   -5.8213   15.4797 N   0  0  0  0  0  0
  -55.7913   -6.0561   15.3344 N   0  0  0  0  0  0
  -54.5319   -7.9493   15.7895 N   0  3  0  0  0  0
  -49.1014   -2.1625   16.5353 C   0  0  0  0  0  0
  -49.5889   -0.8586   15.9291 C   0  0  0  0  0  0
  -48.0652   -2.8554   15.9489 C   0  0  0  0  0  0
  -49.6904   -2.6506   17.6818 C   0  0  0  0  0  0
  -48.2074   -4.5217   17.6558 C   0  0  0  0  0  0
  -47.6168   -4.0303   16.5053 C   0  0  0  0  0  0
  -49.2462   -3.8250   18.2424 C   0  0  0  0  0  0
  -49.2993    0.2981   16.8606 C   0  0  0  0  0  0
  -47.6427    1.2854   18.2413 C   0  0  0  0  0  0
  -49.8863   -6.5553   17.4284 C   0  0  0  0  0  0
  -46.1416    1.2223   18.4233 C   0  0  0  0  0  0
  -48.5885   -6.7430   18.1410 C   0  0  0  0  0  0
  -49.9050   -5.8820   16.1726 C   0  0  0  0  0  0
  -51.1050   -7.0352   17.9918 C   0  0  0  0  0  0
  -52.3263   -6.0848   16.1162 C   0  0  0  0  0  0
  -51.0568   -5.6585   15.5292 C   0  0  0  0  0  0
  -52.2756   -6.8248   17.3801 C   0  0  0  0  0  0
  -44.2512    1.6716   19.8958 C   0  0  0  0  0  0
  -46.5759    2.2046   20.6684 C   0  0  0  0  0  0
  -54.5878   -6.6289   15.5160 C   0  0  0  0  0  0
  -53.5190   -4.9871   14.9300 H   0  0  0  0  0  0
  -55.8557   -5.0735   15.1571 H   0  0  0  0  0  0
  -56.6247   -6.6076   15.3725 H   0  0  0  0  0  0
  -55.3248   -8.4219   16.1705 H   0  0  0  0  0  0
  -53.6996   -8.4674   15.5911 H   0  0  0  0  0  0
  1 14  1  0  0  0
  1 21  1  0  0  0
  2 17  1  0  0  0
  2 18  1  0  0  0
  3 17  2  0  0  0
  4 20  2  0  0  0
  5 21  2  0  0  0
  6 20  1  0  0  0
  6 27  1  0  0  0
  6 28  1  0  0  0
  7 24  1  0  0  0
  7 29  1  0  0  0
  7 30  1  0  0  0
  8 29  2  0  0  0
  8 31  1  0  0  0
  8 32  1  0  0  0
  9 29  1  0  0  0
  9 33  1  0  0  0
  9 34  1  0  0  0
 10 11  1  0  0  0
 10 12  2  0  0  0
 10 13  1  0  0  0
 11 17  1  0  0  0
 12 15  1  0  0  0
 13 16  2  0  0  0
 14 15  2  0  0  0
 14 16  1  0  0  0
 18 20  1  0  0  0
 19 21  1  0  0  0
 19 22  2  0  0  0
 19 23  1  0  0  0
 22 25  1  0  0  0
 23 26  2  0  0  0
 24 25  2  0  0  0
 24 26  1  0  0  0
M  END
>  <CHROM.0>
-66.20093002,64.99914712,167.46739271

>  <CHROM.1>
-110.21353180,-179.02114175,2.32268126,-170.13238075,147.57777656,154.84299508
-113.79898729,48.03009278,25.84976606,45.89316038,-49.44761941,-3.21343320
17.32872393,-2.29021605,-0.42530106,-0.06177280

>  <HEADER>
                                                                          

>  <MASTER>
        0    0    0    0    0    0    0    0   52    0   52    0          

>  <Name>
Camostat.pdb

>  <RI>
-3.27748e+08

>  <Rbt.Current_Directory>
/root/miniconda3/envs/rdock/share/rxdock-2013.1.1_148c5bd1-0/data/ligands/prepped_ligands/Camostat

>  <Rbt.Executable>
rbdock/0.1.0

>  <Rbt.Library>
librxdock.so/0.1.0

>  <Rbt.Parameter_File>
/root/miniconda3/envs/rdock/share/rxdock-2013.1.1_148c5bd1-0/data/scripts/dock.prm

>  <Rbt.Receptor>
def.prm

>  <SCORE>
-13.6624

>  <SCORE.INTER>
-12.8689

>  <SCORE.INTER.CONST>
1

>  <SCORE.INTER.POLAR>
-2.16245

>  <SCORE.INTER.REPUL>
0

>  <SCORE.INTER.ROT>
10

>  <SCORE.INTER.VDW>
-20.9166

>  <SCORE.INTER.norm>
-0.443757

>  <SCORE.INTRA>
-0.0387149

>  <SCORE.INTRA.DIHEDRAL>
-5.11748

>  <SCORE.INTRA.DIHEDRAL.0>
23.8083

>  <SCORE.INTRA.POLAR>
0

>  <SCORE.INTRA.POLAR.0>
0

>  <SCORE.INTRA.REPUL>
0

>  <SCORE.INTRA.REPUL.0>
0

>  <SCORE.INTRA.VDW>
2.52002

>  <SCORE.INTRA.VDW.0>
-1.22275

>  <SCORE.INTRA.norm>
-0.001335

>  <SCORE.RESTR>
0

>  <SCORE.RESTR.CAVITY>
0

>  <SCORE.RESTR.norm>
0

>  <SCORE.SYSTEM>
-0.754707

>  <SCORE.SYSTEM.CONST>
0

>  <SCORE.SYSTEM.DIHEDRAL>
0.604687

>  <SCORE.SYSTEM.VDW>
-1.05705

>  <SCORE.SYSTEM.norm>
-0.0260244

>  <SCORE.heavy>
29

>  <SCORE.norm>
-0.471116

>  <TITLE>
    5284360_D                                                             

$$$$
Camostat.pdb
  RxDock  02242110293D
librxdock.so/0.1.0
 34 35  0  0  0  0  0  0  0  0999 V2000
  -49.3008   -1.8387   13.8653 O   0  0  0  0  0  0
  -43.8683    0.0206   17.2523 O   0  0  0  0  0  0
  -43.3772   -2.1650   17.4017 O   0  0  0  0  0  0
  -45.4310   -1.8003   19.1633 O   0  0  0  0  0  0
  -49.4845   -3.6957   12.5860 O   0  0  0  0  0  0
  -46.4437    0.2410   19.1015 N   0  0  0  0  0  0
  -52.2323   -5.7276   17.9421 N   0  0  0  0  0  0
  -52.1498   -7.3097   19.6615 N   0  0  0  0  0  0
  -51.4700   -7.9666   17.5440 N   0  3  0  0  0  0
  -45.3277   -1.3551   14.8705 C   0  0  0  0  0  0
  -43.8603   -1.1854   15.2213 C   0  0  0  0  0  0
  -46.1154   -0.2510   14.6292 C   0  0  0  0  0  0
  -45.8724   -2.6181   14.7831 C   0  0  0  0  0  0
  -47.9898   -1.6735   14.2126 C   0  0  0  0  0  0
  -47.4415   -0.4063   14.3002 C   0  0  0  0  0  0
  -47.1979   -2.7793   14.4546 C   0  0  0  0  0  0
  -43.6708   -1.1978   16.7223 C   0  0  0  0  0  0
  -44.0708    0.0881   18.6748 C   0  0  0  0  0  0
  -50.4031   -3.8312   14.7428 C   0  0  0  0  0  0
  -45.3836   -0.5886   19.0054 C   0  0  0  0  0  0
  -49.6936   -3.1174   13.6408 C   0  0  0  0  0  0
  -51.0949   -3.0772   15.7347 C   0  0  0  0  0  0
  -50.3911   -5.2550   14.8175 C   0  0  0  0  0  0
  -51.6519   -5.1397   16.8935 C   0  0  0  0  0  0
  -51.7036   -3.6846   16.7599 C   0  0  0  0  0  0
  -50.9834   -5.8959   15.8310 C   0  0  0  0  0  0
  -47.7709   -0.3065   19.4112 C   0  0  0  0  0  0
  -46.3608    1.6968   18.8791 C   0  0  0  0  0  0
  -51.9662   -7.0146   18.3619 C   0  0  0  0  0  0
  -52.9145   -5.2054   18.4544 H   0  0  0  0  0  0
  -52.4915   -6.6098   20.2896 H   0  0  0  0  0  0
  -51.9495   -8.2273   20.0049 H   0  0  0  0  0  0
  -50.6495   -8.4757   17.7982 H   0  0  0  0  0  0
  -51.9360   -8.1824   16.6857 H   0  0  0  0  0  0
  1 14  1  0  0  0
  1 21  1  0  0  0
  2 17  1  0  0  0
  2 18  1  0  0  0
  3 17  2  0  0  0
  4 20  2  0  0  0
  5 21  2  0  0  0
  6 20  1  0  0  0
  6 27  1  0  0  0
  6 28  1  0  0  0
  7 24  1  0  0  0
  7 29  1  0  0  0
  7 30  1  0  0  0
  8 29  2  0  0  0
  8 31  1  0  0  0
  8 32  1  0  0  0
  9 29  1  0  0  0
  9 33  1  0  0  0
  9 34  1  0  0  0
 10 11  1  0  0  0
 10 12  2  0  0  0
 10 13  1  0  0  0
 11 17  1  0  0  0
 12 15  1  0  0  0
 13 16  2  0  0  0
 14 15  2  0  0  0
 14 16  1  0  0  0
 18 20  1  0  0  0
 19 21  1  0  0  0
 19 22  2  0  0  0
 19 23  1  0  0  0
 22 25  1  0  0  0
 23 26  2  0  0  0
 24 25  2  0  0  0
 24 26  1  0  0  0
M  END
>  <CHROM.0>
52.59915174,63.88966876,-176.99965860

>  <CHROM.1>
171.85385113,-80.75945350,-16.02416673,-66.60728962,-162.41350378,127.03243969
95.39181748,-84.91315114,84.85244508,24.18599203,-48.00005785,-2.68702997
16.50240135,3.12537970,0.68395921,1.66925418

>  <HEADER>
                                                                          

>  <MASTER>
        0    0    0    0    0    0    0    0   52    0   52    0          

>  <Name>
Camostat.pdb

>  <RI>
-3.27748e+08

>  <Rbt.Current_Directory>
/root/miniconda3/envs/rdock/share/rxdock-2013.1.1_148c5bd1-0/data/ligands/prepped_ligands/Camostat

>  <Rbt.Executable>
rbdock/0.1.0

>  <Rbt.Library>
librxdock.so/0.1.0

>  <Rbt.Parameter_File>
/root/miniconda3/envs/rdock/share/rxdock-2013.1.1_148c5bd1-0/data/scripts/dock.prm

>  <Rbt.Receptor>
def.prm

>  <SCORE>
-6.44038

>  <SCORE.INTER>
-10.0634

>  <SCORE.INTER.CONST>
1

>  <SCORE.INTER.POLAR>
-0.842843

>  <SCORE.INTER.REPUL>
0.130782

>  <SCORE.INTER.ROT>
10

>  <SCORE.INTER.VDW>
-23.2516

>  <SCORE.INTER.norm>
-0.347013

>  <SCORE.INTRA>
4.55631

>  <SCORE.INTRA.DIHEDRAL>
8.21755

>  <SCORE.INTRA.DIHEDRAL.0>
23.8083

>  <SCORE.INTRA.POLAR>
0

>  <SCORE.INTRA.POLAR.0>
0

>  <SCORE.INTRA.REPUL>
0

>  <SCORE.INTRA.REPUL.0>
0

>  <SCORE.INTRA.VDW>
0.44754

>  <SCORE.INTRA.VDW.0>
-1.22275

>  <SCORE.INTRA.norm>
0.157114

>  <SCORE.RESTR>
0

>  <SCORE.RESTR.CAVITY>
0

>  <SCORE.RESTR.norm>
0

>  <SCORE.SYSTEM>
-0.933309

>  <SCORE.SYSTEM.CONST>
0

>  <SCORE.SYSTEM.DIHEDRAL>
0.233123

>  <SCORE.SYSTEM.POLAR>
-0.00867187

>  <SCORE.SYSTEM.VDW>
-1.02039

>  <SCORE.SYSTEM.norm>
-0.0321831

>  <SCORE.heavy>
29

>  <SCORE.norm>
-0.222082

>  <TITLE>
    5284360_D                                                             

$$$$
