Camostat.pdb
  RxDock  02242101113D
librxdock.so/0.1.0
 34 35  0  0  0  0  0  0  0  0999 V2000
  -49.9849   -0.5052   15.3583 O   0  0  0  0  0  0
  -44.6169   -0.6123   17.7610 O   0  0  0  0  0  0
  -42.9012   -1.9257   17.1512 O   0  0  0  0  0  0
  -41.7809   -0.4062   19.4260 O   0  0  0  0  0  0
  -51.3886   -1.0134   13.6583 O   0  0  0  0  0  0
  -43.7743   -0.4213   20.5316 N   0  0  0  0  0  0
  -51.3486   -6.5591   16.7449 N   0  0  0  0  0  0
  -51.4279   -7.9756   18.6032 N   0  0  0  0  0  0
  -49.8480   -6.2782   18.5947 N   0  3  0  0  0  0
  -46.4541   -2.1939   16.6666 C   0  0  0  0  0  0
  -45.1664   -2.8295   17.1595 C   0  0  0  0  0  0
  -46.8321   -2.3247   15.3484 C   0  0  0  0  0  0
  -47.2537   -1.4916   17.5425 C   0  0  0  0  0  0
  -48.8078   -1.0529   15.7837 C   0  0  0  0  0  0
  -48.0044   -1.7586   14.9058 C   0  0  0  0  0  0
  -48.4269   -0.9232   17.1053 C   0  0  0  0  0  0
  -44.0946   -1.7775   17.3441 C   0  0  0  0  0  0
  -43.6955    0.3767   18.2528 C   0  0  0  0  0  0
  -51.0118   -2.7154   15.2318 C   0  0  0  0  0  0
  -42.9839   -0.1897   19.4625 C   0  0  0  0  0  0
  -50.8134   -1.3412   14.6842 C   0  0  0  0  0  0
  -50.5179   -3.0299   16.5310 C   0  0  0  0  0  0
  -51.6824   -3.7159   14.4687 C   0  0  0  0  0  0
  -51.2676   -5.3240   16.2448 C   0  0  0  0  0  0
  -50.6403   -4.2642   17.0330 C   0  0  0  0  0  0
  -51.8178   -4.9618   14.9357 C   0  0  0  0  0  0
  -43.1927   -0.9778   21.7601 C   0  0  0  0  0  0
  -45.2286   -0.1752   20.5372 C   0  0  0  0  0  0
  -50.8470   -6.9389   17.9728 C   0  0  0  0  0  0
  -51.7940   -7.2617   16.1894 H   0  0  0  0  0  0
  -52.1879   -8.4617   18.1704 H   0  0  0  0  0  0
  -51.1026   -8.2669   19.5028 H   0  0  0  0  0  0
  -48.9177   -6.3093   18.2331 H   0  0  0  0  0  0
  -50.0395   -5.7345   19.4121 H   0  0  0  0  0  0
  1 14  1  0  0  0
  1 21  1  0  0  0
  2 17  1  0  0  0
  2 18  1  0  0  0
  3 17  2  0  0  0
  4 20  2  0  0  0
  5 21  2  0  0  0
  6 20  1  0  0  0
  6 27  1  0  0  0
  6 28  1  0  0  0
  7 24  1  0  0  0
  7 29  1  0  0  0
  7 30  1  0  0  0
  8 29  2  0  0  0
  8 31  1  0  0  0
  8 32  1  0  0  0
  9 29  1  0  0  0
  9 33  1  0  0  0
  9 34  1  0  0  0
 10 11  1  0  0  0
 10 12  2  0  0  0
 10 13  1  0  0  0
 11 17  1  0  0  0
 12 15  1  0  0  0
 13 16  2  0  0  0
 14 15  2  0  0  0
 14 16  1  0  0  0
 18 20  1  0  0  0
 19 21  1  0  0  0
 19 22  2  0  0  0
 19 23  1  0  0  0
 22 25  1  0  0  0
 23 26  2  0  0  0
 24 25  2  0  0  0
 24 26  1  0  0  0
M  END
>  <CHROM.0>
-65.12341792,57.45571219,-58.56055862

>  <CHROM.1>
50.38684432,-135.49784137,-13.17111000,-61.51043811,-1.52689906,-69.64766779
104.39607801,34.36771440,114.39851796,10.25539979,-47.71293955,-2.52376262
17.19602945,3.00569938,0.56285520,2.47463637

>  <HEADER>
                                                                          

>  <MASTER>
        0    0    0    0    0    0    0    0   52    0   52    0          

>  <Name>
Camostat.pdb

>  <RI>
-7.57726e+08

>  <Rbt.Current_Directory>
/root/miniconda3/envs/rdock/share/rxdock-2013.1.1_148c5bd1-0/data/ligands/prepped_ligands/Camostat

>  <Rbt.Executable>
rbdock/0.1.0

>  <Rbt.Library>
librxdock.so/0.1.0

>  <Rbt.Parameter_File>
/root/miniconda3/envs/rdock/share/rxdock-2013.1.1_148c5bd1-0/data/scripts/dock.prm

>  <Rbt.Receptor>
def.prm

>  <SCORE>
-4.62432

>  <SCORE.INTER>
-4.36778

>  <SCORE.INTER.CONST>
1

>  <SCORE.INTER.POLAR>
-0.764173

>  <SCORE.INTER.REPUL>
0.0276928

>  <SCORE.INTER.ROT>
10

>  <SCORE.INTER.VDW>
-17.3081

>  <SCORE.INTER.norm>
-0.150613

>  <SCORE.INTRA>
0.606217

>  <SCORE.INTRA.DIHEDRAL>
-4.07929

>  <SCORE.INTRA.DIHEDRAL.0>
23.8083

>  <SCORE.INTRA.POLAR>
0

>  <SCORE.INTRA.POLAR.0>
0

>  <SCORE.INTRA.REPUL>
0

>  <SCORE.INTRA.REPUL.0>
0

>  <SCORE.INTRA.VDW>
2.64586

>  <SCORE.INTRA.VDW.0>
-1.22275

>  <SCORE.INTRA.norm>
0.020904

>  <SCORE.RESTR>
0

>  <SCORE.RESTR.CAVITY>
0

>  <SCORE.RESTR.norm>
0

>  <SCORE.SYSTEM>
-0.862764

>  <SCORE.SYSTEM.CONST>
0

>  <SCORE.SYSTEM.DIHEDRAL>
0.104154

>  <SCORE.SYSTEM.POLAR>
-0.00432606

>  <SCORE.SYSTEM.VDW>
-0.900132

>  <SCORE.SYSTEM.norm>
-0.0297505

>  <SCORE.heavy>
29

>  <SCORE.norm>
-0.159459

>  <TITLE>
    5284360_D                                                             

$$$$
Camostat.pdb
  RxDock  02242101113D
librxdock.so/0.1.0
 34 35  0  0  0  0  0  0  0  0999 V2000
  -48.6002   -2.6405   13.7317 O   0  0  0  0  0  0
  -45.2111    0.6758   17.8351 O   0  0  0  0  0  0
  -43.7030   -0.7695   18.6579 O   0  0  0  0  0  0
  -46.3076   -1.3701   19.1569 O   0  0  0  0  0  0
  -50.0772   -1.1728   14.6166 O   0  0  0  0  0  0
  -47.5054    0.0355   20.4933 N   0  0  0  0  0  0
  -53.5887   -6.3647   15.2610 N   0  0  0  0  0  0
  -55.8256   -7.0445   15.2599 N   0  0  0  0  0  0
  -55.3347   -4.9167   16.0403 N   0  3  0  0  0  0
  -45.2377   -1.1218   15.5801 C   0  0  0  0  0  0
  -43.9885   -0.5706   16.2441 C   0  0  0  0  0  0
  -46.1703   -0.2653   15.0375 C   0  0  0  0  0  0
  -45.4357   -2.4840   15.5107 C   0  0  0  0  0  0
  -47.4960   -2.1331   14.3561 C   0  0  0  0  0  0
  -47.2956   -0.7660   14.4261 C   0  0  0  0  0  0
  -46.5592   -2.9901   14.9006 C   0  0  0  0  0  0
  -44.2570   -0.2601   17.7004 C   0  0  0  0  0  0
  -45.6945    0.9275   19.1662 C   0  0  0  0  0  0
  -50.7879   -3.4076   14.4937 C   0  0  0  0  0  0
  -46.5324   -0.2543   19.6042 C   0  0  0  0  0  0
  -49.7932   -2.3141   14.2884 C   0  0  0  0  0  0
  -52.1692   -3.0826   14.6253 C   0  0  0  0  0  0
  -50.3718   -4.7694   14.5659 C   0  0  0  0  0  0
  -52.6717   -5.4315   14.9955 C   0  0  0  0  0  0
  -53.0809   -4.0349   14.8543 C   0  0  0  0  0  0
  -51.2540   -5.7469   14.7997 C   0  0  0  0  0  0
  -48.3858   -1.0331   20.9832 C   0  0  0  0  0  0
  -47.7703    1.3971   20.9950 C   0  0  0  0  0  0
  -54.9120   -6.1000   15.5477 C   0  0  0  0  0  0
  -53.2971   -7.3215   15.2626 H   0  0  0  0  0  0
  -55.5350   -7.9185   14.8690 H   0  0  0  0  0  0
  -56.7959   -6.8801   15.4371 H   0  0  0  0  0  0
  -56.2168   -4.5389   15.7641 H   0  0  0  0  0  0
  -54.7737   -4.4208   16.7035 H   0  0  0  0  0  0
  1 14  1  0  0  0
  1 21  1  0  0  0
  2 17  1  0  0  0
  2 18  1  0  0  0
  3 17  2  0  0  0
  4 20  2  0  0  0
  5 21  2  0  0  0
  6 20  1  0  0  0
  6 27  1  0  0  0
  6 28  1  0  0  0
  7 24  1  0  0  0
  7 29  1  0  0  0
  7 30  1  0  0  0
  8 29  2  0  0  0
  8 31  1  0  0  0
  8 32  1  0  0  0
  9 29  1  0  0  0
  9 33  1  0  0  0
  9 34  1  0  0  0
 10 11  1  0  0  0
 10 12  2  0  0  0
 10 13  1  0  0  0
 11 17  1  0  0  0
 12 15  1  0  0  0
 13 16  2  0  0  0
 14 15  2  0  0  0
 14 16  1  0  0  0
 18 20  1  0  0  0
 19 21  1  0  0  0
 19 22  2  0  0  0
 19 23  1  0  0  0
 22 25  1  0  0  0
 23 26  2  0  0  0
 24 25  2  0  0  0
 24 26  1  0  0  0
M  END
>  <CHROM.0>
174.90543793,-171.16130450,-74.15320564

>  <CHROM.1>
-63.10193781,47.09928916,-8.46996632,-71.68106855,-6.65329257,144.18922505
86.85112199,-61.56415374,28.40729270,-158.36376981,-48.84523650,-2.32390910
16.41207515,-2.64978587,0.43468289,1.21630870

>  <HEADER>
                                                                          

>  <MASTER>
        0    0    0    0    0    0    0    0   52    0   52    0          

>  <Name>
Camostat.pdb

>  <RI>
-7.57726e+08

>  <Rbt.Current_Directory>
/root/miniconda3/envs/rdock/share/rxdock-2013.1.1_148c5bd1-0/data/ligands/prepped_ligands/Camostat

>  <Rbt.Executable>
rbdock/0.1.0

>  <Rbt.Library>
librxdock.so/0.1.0

>  <Rbt.Parameter_File>
/root/miniconda3/envs/rdock/share/rxdock-2013.1.1_148c5bd1-0/data/scripts/dock.prm

>  <Rbt.Receptor>
def.prm

>  <SCORE>
-14.5711

>  <SCORE.INTER>
-14.5769

>  <SCORE.INTER.CONST>
1

>  <SCORE.INTER.POLAR>
-1.88644

>  <SCORE.INTER.REPUL>
0.0454026

>  <SCORE.INTER.ROT>
10

>  <SCORE.INTER.VDW>
-23.79

>  <SCORE.INTER.norm>
-0.502651

>  <SCORE.INTRA>
0.607947

>  <SCORE.INTRA.DIHEDRAL>
-0.760498

>  <SCORE.INTRA.DIHEDRAL.0>
23.8083

>  <SCORE.INTRA.POLAR>
0

>  <SCORE.INTRA.POLAR.0>
0

>  <SCORE.INTRA.REPUL>
0

>  <SCORE.INTRA.REPUL.0>
0

>  <SCORE.INTRA.VDW>
0.988196

>  <SCORE.INTRA.VDW.0>
-1.22275

>  <SCORE.INTRA.norm>
0.0209637

>  <SCORE.RESTR>
0

>  <SCORE.RESTR.CAVITY>
0

>  <SCORE.RESTR.norm>
0

>  <SCORE.SYSTEM>
-0.602187

>  <SCORE.SYSTEM.CONST>
0

>  <SCORE.SYSTEM.DIHEDRAL>
0.928798

>  <SCORE.SYSTEM.VDW>
-1.06659

>  <SCORE.SYSTEM.norm>
-0.0207651

>  <SCORE.heavy>
29

>  <SCORE.norm>
-0.502452

>  <TITLE>
    5284360_D                                                             

$$$$
Camostat.pdb
  RxDock  02242101113D
librxdock.so/0.1.0
 34 35  0  0  0  0  0  0  0  0999 V2000
  -50.9059   -2.7798   13.6809 O   0  0  0  0  0  0
  -44.6797   -1.1594   17.7441 O   0  0  0  0  0  0
  -46.3380   -2.6670   17.6111 O   0  0  0  0  0  0
  -42.2877   -0.4824   18.9533 O   0  0  0  0  0  0
  -53.0224   -2.8133   14.4798 O   0  0  0  0  0  0
  -43.4526   -0.3635   20.9092 N   0  0  0  0  0  0
  -50.0578   -5.3742   19.4485 N   0  0  0  0  0  0
  -48.3541   -6.3245   20.7372 N   0  0  0  0  0  0
  -48.6713   -7.1312   18.5864 N   0  3  0  0  0  0
  -47.2251   -1.6284   15.1489 C   0  0  0  0  0  0
  -45.8755   -1.2142   15.7077 C   0  0  0  0  0  0
  -47.3031   -2.5895   14.1650 C   0  0  0  0  0  0
  -48.3776   -1.0486   15.6339 C   0  0  0  0  0  0
  -49.6844   -2.3907   14.1533 C   0  0  0  0  0  0
  -48.5267   -2.9722   13.6679 C   0  0  0  0  0  0
  -49.6038   -1.4273   15.1402 C   0  0  0  0  0  0
  -45.6856   -1.7744   17.1003 C   0  0  0  0  0  0
  -44.3672   -1.6304   19.0667 C   0  0  0  0  0  0
  -51.3747   -3.7308   15.8789 C   0  0  0  0  0  0
  -43.2622   -0.7665   19.6353 C   0  0  0  0  0  0
  -51.8371   -3.0685   14.6239 C   0  0  0  0  0  0
  -52.1401   -3.5834   17.0719 C   0  0  0  0  0  0
  -50.1755   -4.5019   15.8987 C   0  0  0  0  0  0
  -50.4716   -4.8694   18.2840 C   0  0  0  0  0  0
  -51.7300   -4.1275   18.2236 C   0  0  0  0  0  0
  -49.7319   -5.0552   17.0326 C   0  0  0  0  0  0
  -42.4407    0.4737   21.5668 C   0  0  0  0  0  0
  -44.6266   -0.7446   21.7166 C   0  0  0  0  0  0
  -49.0433   -6.2996   19.5821 C   0  0  0  0  0  0
  -50.5197   -5.0702   20.2820 H   0  0  0  0  0  0
  -48.5972   -5.6973   21.4780 H   0  0  0  0  0  0
  -47.6003   -6.9694   20.8624 H   0  0  0  0  0  0
  -47.8069   -6.9921   18.1062 H   0  0  0  0  0  0
  -49.2521   -7.9067   18.3379 H   0  0  0  0  0  0
  1 14  1  0  0  0
  1 21  1  0  0  0
  2 17  1  0  0  0
  2 18  1  0  0  0
  3 17  2  0  0  0
  4 20  2  0  0  0
  5 21  2  0  0  0
  6 20  1  0  0  0
  6 27  1  0  0  0
  6 28  1  0  0  0
  7 24  1  0  0  0
  7 29  1  0  0  0
  7 30  1  0  0  0
  8 29  2  0  0  0
  8 31  1  0  0  0
  8 32  1  0  0  0
  9 29  1  0  0  0
  9 33  1  0  0  0
  9 34  1  0  0  0
 10 11  1  0  0  0
 10 12  2  0  0  0
 10 13  1  0  0  0
 11 17  1  0  0  0
 12 15  1  0  0  0
 13 16  2  0  0  0
 14 15  2  0  0  0
 14 16  1  0  0  0
 18 20  1  0  0  0
 19 21  1  0  0  0
 19 22  2  0  0  0
 19 23  1  0  0  0
 22 25  1  0  0  0
 23 26  2  0  0  0
 24 25  2  0  0  0
 24 26  1  0  0  0
M  END
>  <CHROM.0>
-64.31025758,-175.98003586,-61.59359161

>  <CHROM.1>
130.94703039,144.17812264,1.96494469,-177.20974987,166.71024484,107.74362602
-106.52149705,-164.19808120,-45.29105888,155.23575496,-47.88971101,-2.82452516
17.37371580,-2.94020911,0.57340061,2.14360077

>  <HEADER>
                                                                          

>  <MASTER>
        0    0    0    0    0    0    0    0   52    0   52    0          

>  <Name>
Camostat.pdb

>  <RI>
-7.57726e+08

>  <Rbt.Current_Directory>
/root/miniconda3/envs/rdock/share/rxdock-2013.1.1_148c5bd1-0/data/ligands/prepped_ligands/Camostat

>  <Rbt.Executable>
rbdock/0.1.0

>  <Rbt.Library>
librxdock.so/0.1.0

>  <Rbt.Parameter_File>
/root/miniconda3/envs/rdock/share/rxdock-2013.1.1_148c5bd1-0/data/scripts/dock.prm

>  <Rbt.Receptor>
def.prm

>  <SCORE>
-5.05837

>  <SCORE.INTER>
-2.04192

>  <SCORE.INTER.CONST>
1

>  <SCORE.INTER.POLAR>
-0.460054

>  <SCORE.INTER.REPUL>
0.0465017

>  <SCORE.INTER.ROT>
10

>  <SCORE.INTER.VDW>
-16.1102

>  <SCORE.INTER.norm>
-0.0704111

>  <SCORE.INTRA>
-1.99647

>  <SCORE.INTRA.DIHEDRAL>
-6.36556

>  <SCORE.INTRA.DIHEDRAL.0>
23.8083

>  <SCORE.INTRA.POLAR>
0

>  <SCORE.INTRA.POLAR.0>
0

>  <SCORE.INTRA.REPUL>
0

>  <SCORE.INTRA.REPUL.0>
0

>  <SCORE.INTRA.VDW>
1.18631

>  <SCORE.INTRA.VDW.0>
-1.22275

>  <SCORE.INTRA.norm>
-0.0688437

>  <SCORE.RESTR>
0

>  <SCORE.RESTR.CAVITY>
0

>  <SCORE.RESTR.norm>
0

>  <SCORE.SYSTEM>
-1.01998

>  <SCORE.SYSTEM.CONST>
0

>  <SCORE.SYSTEM.DIHEDRAL>
0.136017

>  <SCORE.SYSTEM.VDW>
-1.08799

>  <SCORE.SYSTEM.norm>
-0.0351718

>  <SCORE.heavy>
29

>  <SCORE.norm>
-0.174427

>  <TITLE>
    5284360_D                                                             

$$$$
Camostat.pdb
  RxDock  02242101113D
librxdock.so/0.1.0
 34 35  0  0  0  0  0  0  0  0999 V2000
  -45.3128   -2.6725   14.4060 O   0  0  0  0  0  0
  -51.5481   -3.0684   17.3694 O   0  0  0  0  0  0
  -51.9548   -2.5102   15.2331 O   0  0  0  0  0  0
  -53.0752   -4.4413   19.5672 O   0  0  0  0  0  0
  -43.1136   -2.1782   14.6004 O   0  0  0  0  0  0
  -51.8864   -6.0816   18.5218 N   0  0  0  0  0  0
  -45.3448    0.1533   20.0832 N   0  0  0  0  0  0
  -46.1971   -0.1057   22.2448 N   0  0  0  0  0  0
  -47.3751   -1.0574   20.4887 N   0  3  0  0  0  0
  -48.9926   -1.6110   15.9427 C   0  0  0  0  0  0
  -50.3386   -1.2222   16.5280 C   0  0  0  0  0  0
  -48.2317   -0.6779   15.2733 C   0  0  0  0  0  0
  -48.5249   -2.8991   16.0896 C   0  0  0  0  0  0
  -46.5371   -2.3208   14.8999 C   0  0  0  0  0  0
  -47.0076   -1.0280   14.7538 C   0  0  0  0  0  0
  -47.3017   -3.2548   15.5719 C   0  0  0  0  0  0
  -51.3587   -2.3110   16.2764 C   0  0  0  0  0  0
  -52.5305   -4.1149   17.2755 C   0  0  0  0  0  0
  -44.4788   -1.5453   16.4032 C   0  0  0  0  0  0
  -52.5267   -4.8947   18.5726 C   0  0  0  0  0  0
  -44.2432   -2.1593   15.0635 C   0  0  0  0  0  0
  -45.1430   -2.3003   17.4129 C   0  0  0  0  0  0
  -44.0534   -0.2130   16.6811 C   0  0  0  0  0  0
  -45.0393   -0.3789   18.8977 C   0  0  0  0  0  0
  -45.4087   -1.7639   18.6097 C   0  0  0  0  0  0
  -44.3072    0.3577   17.8637 C   0  0  0  0  0  0
  -51.8129   -6.9212   19.7246 C   0  0  0  0  0  0
  -51.2103   -6.5906   17.3137 C   0  0  0  0  0  0
  -46.3281   -0.3256   20.9241 C   0  0  0  0  0  0
  -44.8343    0.9605   20.3804 H   0  0  0  0  0  0
  -45.4135    0.4118   22.5901 H   0  0  0  0  0  0
  -46.8811   -0.4542   22.8857 H   0  0  0  0  0  0
  -47.9920   -1.4967   21.1395 H   0  0  0  0  0  0
  -47.5513   -1.1459   19.5080 H   0  0  0  0  0  0
  1 14  1  0  0  0
  1 21  1  0  0  0
  2 17  1  0  0  0
  2 18  1  0  0  0
  3 17  2  0  0  0
  4 20  2  0  0  0
  5 21  2  0  0  0
  6 20  1  0  0  0
  6 27  1  0  0  0
  6 28  1  0  0  0
  7 24  1  0  0  0
  7 29  1  0  0  0
  7 30  1  0  0  0
  8 29  2  0  0  0
  8 31  1  0  0  0
  8 32  1  0  0  0
  9 29  1  0  0  0
  9 33  1  0  0  0
  9 34  1  0  0  0
 10 11  1  0  0  0
 10 12  2  0  0  0
 10 13  1  0  0  0
 11 17  1  0  0  0
 12 15  1  0  0  0
 13 16  2  0  0  0
 14 15  2  0  0  0
 14 16  1  0  0  0
 18 20  1  0  0  0
 19 21  1  0  0  0
 19 22  2  0  0  0
 19 23  1  0  0  0
 22 25  1  0  0  0
 23 26  2  0  0  0
 24 25  2  0  0  0
 24 26  1  0  0  0
M  END
>  <CHROM.0>
97.93086231,63.15908446,177.77380051

>  <CHROM.1>
70.88883937,-166.01049508,-2.03326214,176.57352441,-20.98733494,171.07382781
138.16044469,101.01350507,77.54014011,53.90285028,-48.05339441,-2.39614552
17.38374268,-0.00371126,-0.48057239,-1.77242458

>  <HEADER>
                                                                          

>  <MASTER>
        0    0    0    0    0    0    0    0   52    0   52    0          

>  <Name>
Camostat.pdb

>  <RI>
-7.57726e+08

>  <Rbt.Current_Directory>
/root/miniconda3/envs/rdock/share/rxdock-2013.1.1_148c5bd1-0/data/ligands/prepped_ligands/Camostat

>  <Rbt.Executable>
rbdock/0.1.0

>  <Rbt.Library>
librxdock.so/0.1.0

>  <Rbt.Parameter_File>
/root/miniconda3/envs/rdock/share/rxdock-2013.1.1_148c5bd1-0/data/scripts/dock.prm

>  <Rbt.Receptor>
def.prm

>  <SCORE>
-4.07497

>  <SCORE.INTER>
-3.32583

>  <SCORE.INTER.CONST>
1

>  <SCORE.INTER.POLAR>
-0.314989

>  <SCORE.INTER.REPUL>
0.0697392

>  <SCORE.INTER.ROT>
10

>  <SCORE.INTER.VDW>
-18.0036

>  <SCORE.INTER.norm>
-0.114684

>  <SCORE.INTRA>
-1.4617

>  <SCORE.INTRA.DIHEDRAL>
-4.36936

>  <SCORE.INTRA.DIHEDRAL.0>
23.8083

>  <SCORE.INTRA.POLAR>
0

>  <SCORE.INTRA.POLAR.0>
0

>  <SCORE.INTRA.REPUL>
0

>  <SCORE.INTRA.REPUL.0>
0

>  <SCORE.INTRA.VDW>
0.722978

>  <SCORE.INTRA.VDW.0>
-1.22275

>  <SCORE.INTRA.norm>
-0.0504035

>  <SCORE.RESTR>
0

>  <SCORE.RESTR.CAVITY>
0

>  <SCORE.RESTR.norm>
0

>  <SCORE.SYSTEM>
0.712556

>  <SCORE.SYSTEM.CONST>
0

>  <SCORE.SYSTEM.DIHEDRAL>
2.57649

>  <SCORE.SYSTEM.VDW>
-0.575688

>  <SCORE.SYSTEM.norm>
0.0245709

>  <SCORE.heavy>
29

>  <SCORE.norm>
-0.140516

>  <TITLE>
    5284360_D                                                             

$$$$
Camostat.pdb
  RxDock  02242101113D
librxdock.so/0.1.0
 34 35  0  0  0  0  0  0  0  0999 V2000
  -52.9232   -5.5000   17.4649 O   0  0  0  0  0  0
  -46.8667   -1.8085   18.8453 O   0  0  0  0  0  0
  -48.5230   -0.8742   17.6517 O   0  0  0  0  0  0
  -46.5094    0.9008   17.6394 O   0  0  0  0  0  0
  -53.6083   -6.3404   15.4791 O   0  0  0  0  0  0
  -44.4847    0.4101   18.5646 N   0  0  0  0  0  0
  -49.3986   -2.0270   13.4778 N   0  0  0  0  0  0
  -47.6305   -0.5046   13.6254 N   0  0  0  0  0  0
  -49.4105   -0.2511   15.0899 N   0  3  0  0  0  0
  -50.0964   -2.9923   19.1231 C   0  0  0  0  0  0
  -49.0483   -2.0660   19.7136 C   0  0  0  0  0  0
  -51.4219   -2.6176   19.1046 C   0  0  0  0  0  0
  -49.7202   -4.2082   18.5944 C   0  0  0  0  0  0
  -51.9928   -4.6734   18.0284 C   0  0  0  0  0  0
  -52.3688   -3.4523   18.5590 C   0  0  0  0  0  0
  -50.6629   -5.0469   18.0477 C   0  0  0  0  0  0
  -48.1579   -1.5119   18.6230 C   0  0  0  0  0  0
  -45.9206   -1.3940   17.8442 C   0  0  0  0  0  0
  -52.0284   -4.6060   15.3780 C   0  0  0  0  0  0
  -45.6704    0.0899   18.0053 C   0  0  0  0  0  0
  -52.9174   -5.5555   16.1097 C   0  0  0  0  0  0
  -50.9356   -5.1141   14.6174 C   0  0  0  0  0  0
  -52.2560   -3.1997   15.4366 C   0  0  0  0  0  0
  -50.2686   -2.8390   14.0827 C   0  0  0  0  0  0
  -50.0939   -4.2874   13.9860 C   0  0  0  0  0  0
  -51.4321   -2.3432   14.8232 C   0  0  0  0  0  0
  -44.1310    1.8217   18.7633 C   0  0  0  0  0  0
  -43.4802   -0.5903   18.9718 C   0  0  0  0  0  0
  -48.8365   -0.9105   14.0617 C   0  0  0  0  0  0
  -49.1425   -2.2340   12.5333 H   0  0  0  0  0  0
  -47.1762   -0.9965   12.8819 H   0  0  0  0  0  0
  -47.1846    0.2897   14.0380 H   0  0  0  0  0  0
  -49.2224   -0.5205   16.0328 H   0  0  0  0  0  0
  -50.0128    0.5274   14.9121 H   0  0  0  0  0  0
  1 14  1  0  0  0
  1 21  1  0  0  0
  2 17  1  0  0  0
  2 18  1  0  0  0
  3 17  2  0  0  0
  4 20  2  0  0  0
  5 21  2  0  0  0
  6 20  1  0  0  0
  6 27  1  0  0  0
  6 28  1  0  0  0
  7 24  1  0  0  0
  7 29  1  0  0  0
  7 30  1  0  0  0
  8 29  2  0  0  0
  8 31  1  0  0  0
  8 32  1  0  0  0
  9 29  1  0  0  0
  9 33  1  0  0  0
  9 34  1  0  0  0
 10 11  1  0  0  0
 10 12  2  0  0  0
 10 13  1  0  0  0
 11 17  1  0  0  0
 12 15  1  0  0  0
 13 16  2  0  0  0
 14 15  2  0  0  0
 14 16  1  0  0  0
 18 20  1  0  0  0
 19 21  1  0  0  0
 19 22  2  0  0  0
 19 23  1  0  0  0
 22 25  1  0  0  0
 23 26  2  0  0  0
 24 25  2  0  0  0
 24 26  1  0  0  0
M  END
>  <CHROM.0>
-58.70687773,61.40006137,178.78718437

>  <CHROM.1>
104.95816890,173.16149740,-2.95791270,77.44802139,-134.36494206,88.55248648
-110.31611752,-122.25970966,-74.98185972,114.69603993,-49.24639354,-2.38959888
16.88795098,3.02781852,-0.65420579,-1.36289822

>  <HEADER>
                                                                          

>  <MASTER>
        0    0    0    0    0    0    0    0   52    0   52    0          

>  <Name>
Camostat.pdb

>  <RI>
-7.57726e+08

>  <Rbt.Current_Directory>
/root/miniconda3/envs/rdock/share/rxdock-2013.1.1_148c5bd1-0/data/ligands/prepped_ligands/Camostat

>  <Rbt.Executable>
rbdock/0.1.0

>  <Rbt.Library>
librxdock.so/0.1.0

>  <Rbt.Parameter_File>
/root/miniconda3/envs/rdock/share/rxdock-2013.1.1_148c5bd1-0/data/scripts/dock.prm

>  <Rbt.Receptor>
def.prm

>  <SCORE>
-14.2682

>  <SCORE.INTER>
-9.00944

>  <SCORE.INTER.CONST>
1

>  <SCORE.INTER.POLAR>
-1.85126

>  <SCORE.INTER.REPUL>
0

>  <SCORE.INTER.ROT>
10

>  <SCORE.INTER.VDW>
-18.1152

>  <SCORE.INTER.norm>
-0.31067

>  <SCORE.INTRA>
-4.23112

>  <SCORE.INTRA.DIHEDRAL>
3.70295

>  <SCORE.INTRA.DIHEDRAL.0>
23.8083

>  <SCORE.INTRA.POLAR>
-1.25

>  <SCORE.INTRA.POLAR.0>
0

>  <SCORE.INTRA.REPUL>
0

>  <SCORE.INTRA.REPUL.0>
0

>  <SCORE.INTRA.VDW>
-1.8326

>  <SCORE.INTRA.VDW.0>
-1.22275

>  <SCORE.INTRA.norm>
-0.145901

>  <SCORE.RESTR>
0

>  <SCORE.RESTR.CAVITY>
0

>  <SCORE.RESTR.norm>
0

>  <SCORE.SYSTEM>
-1.02766

>  <SCORE.SYSTEM.CONST>
0

>  <SCORE.SYSTEM.DIHEDRAL>
0.0176552

>  <SCORE.SYSTEM.VDW>
-1.03649

>  <SCORE.SYSTEM.norm>
-0.0354365

>  <SCORE.heavy>
29

>  <SCORE.norm>
-0.492008

>  <TITLE>
    5284360_D                                                             

$$$$
Camostat.pdb
  RxDock  02242101113D
librxdock.so/0.1.0
 34 35  0  0  0  0  0  0  0  0999 V2000
  -50.5841   -0.5729   14.8522 O   0  0  0  0  0  0
  -45.4873    0.3515   18.8181 O   0  0  0  0  0  0
  -45.1445   -1.8552   19.0499 O   0  0  0  0  0  0
  -43.4579   -0.5128   20.5029 O   0  0  0  0  0  0
  -51.3841   -1.8304   13.1499 O   0  0  0  0  0  0
  -42.3354    1.3684   19.8721 N   0  0  0  0  0  0
  -49.0085   -6.5162   16.6398 N   0  0  0  0  0  0
  -49.2537   -8.8075   17.0346 N   0  0  0  0  0  0
  -51.1019   -7.4439   17.3537 N   0  3  0  0  0  0
  -48.2264   -0.8179   18.2301 C   0  0  0  0  0  0
  -47.3608   -0.9295   19.4725 C   0  0  0  0  0  0
  -47.6720   -0.4265   17.0313 C   0  0  0  0  0  0
  -49.5697   -1.1188   18.2984 C   0  0  0  0  0  0
  -49.8031   -0.6381   15.9713 C   0  0  0  0  0  0
  -48.4545   -0.3370   15.9041 C   0  0  0  0  0  0
  -50.3569   -1.0309   17.1744 C   0  0  0  0  0  0
  -45.8947   -0.8971   19.1000 C   0  0  0  0  0  0
  -44.1042    0.5213   18.4614 C   0  0  0  0  0  0
  -50.3753   -3.0035   14.9164 C   0  0  0  0  0  0
  -43.2668    0.4042   19.7166 C   0  0  0  0  0  0
  -50.8251   -1.7554   14.2329 C   0  0  0  0  0  0
  -49.0046   -3.1492   15.2780 C   0  0  0  0  0  0
  -51.2982   -4.0514   15.2051 C   0  0  0  0  0  0
  -49.4745   -5.3874   16.1007 C   0  0  0  0  0  0
  -48.5606   -4.2735   15.8519 C   0  0  0  0  0  0
  -50.8893   -5.1914   15.7722 C   0  0  0  0  0  0
  -41.4693    1.3595   21.0582 C   0  0  0  0  0  0
  -42.1460    2.4782   18.9192 C   0  0  0  0  0  0
  -49.7976   -7.5771   17.0340 C   0  0  0  0  0  0
  -48.0212   -6.5973   16.7777 H   0  0  0  0  0  0
  -48.2953   -8.9306   16.7747 H   0  0  0  0  0  0
  -49.8011   -9.6022   17.2968 H   0  0  0  0  0  0
  -51.7865   -8.0501   16.9525 H   0  0  0  0  0  0
  -51.3877   -6.7483   18.0133 H   0  0  0  0  0  0
  1 14  1  0  0  0
  1 21  1  0  0  0
  2 17  1  0  0  0
  2 18  1  0  0  0
  3 17  2  0  0  0
  4 20  2  0  0  0
  5 21  2  0  0  0
  6 20  1  0  0  0
  6 27  1  0  0  0
  6 28  1  0  0  0
  7 24  1  0  0  0
  7 29  1  0  0  0
  7 30  1  0  0  0
  8 29  2  0  0  0
  8 31  1  0  0  0
  8 32  1  0  0  0
  9 29  1  0  0  0
  9 33  1  0  0  0
  9 34  1  0  0  0
 10 11  1  0  0  0
 10 12  2  0  0  0
 10 13  1  0  0  0
 11 17  1  0  0  0
 12 15  1  0  0  0
 13 16  2  0  0  0
 14 15  2  0  0  0
 14 16  1  0  0  0
 18 20  1  0  0  0
 19 21  1  0  0  0
 19 22  2  0  0  0
 19 23  1  0  0  0
 22 25  1  0  0  0
 23 26  2  0  0  0
 24 25  2  0  0  0
 24 26  1  0  0  0
M  END
>  <CHROM.0>
-170.73834259,58.30136470,-55.43649390

>  <CHROM.1>
98.94501678,-171.99813558,-0.62235960,-74.77434867,173.51881440,130.33233329
-13.78021905,77.09145512,47.00168690,-56.34572858,-47.72453316,-2.12779536
17.32215325,2.63729845,0.62556097,2.91500189

>  <HEADER>
                                                                          

>  <MASTER>
        0    0    0    0    0    0    0    0   52    0   52    0          

>  <Name>
Camostat.pdb

>  <RI>
-7.57726e+08

>  <Rbt.Current_Directory>
/root/miniconda3/envs/rdock/share/rxdock-2013.1.1_148c5bd1-0/data/ligands/prepped_ligands/Camostat

>  <Rbt.Executable>
rbdock/0.1.0

>  <Rbt.Library>
librxdock.so/0.1.0

>  <Rbt.Parameter_File>
/root/miniconda3/envs/rdock/share/rxdock-2013.1.1_148c5bd1-0/data/scripts/dock.prm

>  <Rbt.Receptor>
def.prm

>  <SCORE>
-7.48276

>  <SCORE.INTER>
-7.04859

>  <SCORE.INTER.CONST>
1

>  <SCORE.INTER.POLAR>
-1.06007

>  <SCORE.INTER.REPUL>
0.0477595

>  <SCORE.INTER.ROT>
10

>  <SCORE.INTER.VDW>
-19.0832

>  <SCORE.INTER.norm>
-0.243055

>  <SCORE.INTRA>
0.328603

>  <SCORE.INTRA.DIHEDRAL>
-4.83543

>  <SCORE.INTRA.DIHEDRAL.0>
23.8083

>  <SCORE.INTRA.POLAR>
0

>  <SCORE.INTRA.POLAR.0>
0

>  <SCORE.INTRA.REPUL>
0

>  <SCORE.INTRA.REPUL.0>
0

>  <SCORE.INTRA.VDW>
2.74632

>  <SCORE.INTRA.VDW.0>
-1.22275

>  <SCORE.INTRA.norm>
0.0113311

>  <SCORE.RESTR>
0

>  <SCORE.RESTR.CAVITY>
0

>  <SCORE.RESTR.norm>
0

>  <SCORE.SYSTEM>
-0.762768

>  <SCORE.SYSTEM.CONST>
0

>  <SCORE.SYSTEM.DIHEDRAL>
0.262825

>  <SCORE.SYSTEM.POLAR>
-0.0106945

>  <SCORE.SYSTEM.VDW>
-0.857819

>  <SCORE.SYSTEM.norm>
-0.0263023

>  <SCORE.heavy>
29

>  <SCORE.norm>
-0.258026

>  <TITLE>
    5284360_D                                                             

$$$$
Camostat.pdb
  RxDock  02242101113D
librxdock.so/0.1.0
 34 35  0  0  0  0  0  0  0  0999 V2000
  -50.7803   -0.6489   16.1834 O   0  0  0  0  0  0
  -45.3436    0.4201   19.4810 O   0  0  0  0  0  0
  -44.8388    2.3620   18.4737 O   0  0  0  0  0  0
  -43.5663    2.7530   21.0250 O   0  0  0  0  0  0
  -51.3496   -1.2941   18.2759 O   0  0  0  0  0  0
  -42.8502    0.5921   20.9057 N   0  0  0  0  0  0
  -54.4875   -5.6702   14.9291 N   0  0  0  0  0  0
  -55.7730   -7.6039   15.2012 N   0  0  0  0  0  0
  -53.7307   -7.4916   16.2937 N   0  3  0  0  0  0
  -46.7814    0.0975   16.8767 C   0  0  0  0  0  0
  -45.3114    0.3897   17.1194 C   0  0  0  0  0  0
  -47.6953    0.2438   17.8970 C   0  0  0  0  0  0
  -47.2057   -0.3059   15.6290 C   0  0  0  0  0  0
  -49.4554   -0.4154   16.4213 C   0  0  0  0  0  0
  -49.0281   -0.0098   17.6731 C   0  0  0  0  0  0
  -48.5372   -0.5611   15.3994 C   0  0  0  0  0  0
  -45.1337    1.1829   18.3955 C   0  0  0  0  0  0
  -45.2159    1.0604   20.7627 C   0  0  0  0  0  0
  -52.1815   -2.6178   16.5237 C   0  0  0  0  0  0
  -43.7940    1.5568   20.9118 C   0  0  0  0  0  0
  -51.4019   -1.4676   17.0684 C   0  0  0  0  0  0
  -52.2809   -2.7911   15.1127 C   0  0  0  0  0  0
  -52.8314   -3.5386   17.3970 C   0  0  0  0  0  0
  -53.7360   -4.7057   15.4651 C   0  0  0  0  0  0
  -53.0085   -3.7860   14.5917 C   0  0  0  0  0  0
  -53.5719   -4.5411   16.9120 C   0  0  0  0  0  0
  -41.4339    0.9583   21.0363 C   0  0  0  0  0  0
  -43.1534   -0.8419   20.7405 C   0  0  0  0  0  0
  -54.6380   -6.9321   15.4660 C   0  0  0  0  0  0
  -54.9675   -5.4704   14.0746 H   0  0  0  0  0  0
  -56.4700   -7.1948   14.6113 H   0  0  0  0  0  0
  -55.9244   -8.5134   15.5884 H   0  0  0  0  0  0
  -53.7481   -7.2942   17.2724 H   0  0  0  0  0  0
  -53.0470   -8.1261   15.9325 H   0  0  0  0  0  0
  1 14  1  0  0  0
  1 21  1  0  0  0
  2 17  1  0  0  0
  2 18  1  0  0  0
  3 17  2  0  0  0
  4 20  2  0  0  0
  5 21  2  0  0  0
  6 20  1  0  0  0
  6 27  1  0  0  0
  6 28  1  0  0  0
  7 24  1  0  0  0
  7 29  1  0  0  0
  7 30  1  0  0  0
  8 29  2  0  0  0
  8 31  1  0  0  0
  8 32  1  0  0  0
  9 29  1  0  0  0
  9 33  1  0  0  0
  9 34  1  0  0  0
 10 11  1  0  0  0
 10 12  2  0  0  0
 10 13  1  0  0  0
 11 17  1  0  0  0
 12 15  1  0  0  0
 13 16  2  0  0  0
 14 15  2  0  0  0
 14 16  1  0  0  0
 18 20  1  0  0  0
 19 21  1  0  0  0
 19 22  2  0  0  0
 19 23  1  0  0  0
 22 25  1  0  0  0
 23 26  2  0  0  0
 24 25  2  0  0  0
 24 26  1  0  0  0
M  END
>  <CHROM.0>
51.52275643,-179.06836641,-67.65571981

>  <CHROM.1>
-50.68411707,51.48664352,0.50924142,-61.96947224,144.33727685,84.13700464
-15.94857121,72.71814128,117.20644090,-1.94243904,-48.87141841,-1.49892807
17.58292854,2.90090130,0.61876685,2.55180741

>  <HEADER>
                                                                          

>  <MASTER>
        0    0    0    0    0    0    0    0   52    0   52    0          

>  <Name>
Camostat.pdb

>  <RI>
-7.57726e+08

>  <Rbt.Current_Directory>
/root/miniconda3/envs/rdock/share/rxdock-2013.1.1_148c5bd1-0/data/ligands/prepped_ligands/Camostat

>  <Rbt.Executable>
rbdock/0.1.0

>  <Rbt.Library>
librxdock.so/0.1.0

>  <Rbt.Parameter_File>
/root/miniconda3/envs/rdock/share/rxdock-2013.1.1_148c5bd1-0/data/scripts/dock.prm

>  <Rbt.Receptor>
def.prm

>  <SCORE>
-7.61025

>  <SCORE.INTER>
-9.49514

>  <SCORE.INTER.CONST>
1

>  <SCORE.INTER.POLAR>
-1.21792

>  <SCORE.INTER.REPUL>
0

>  <SCORE.INTER.ROT>
10

>  <SCORE.INTER.VDW>
-20.7542

>  <SCORE.INTER.norm>
-0.327419

>  <SCORE.INTRA>
2.78232

>  <SCORE.INTRA.DIHEDRAL>
1.16292

>  <SCORE.INTRA.DIHEDRAL.0>
23.8083

>  <SCORE.INTRA.POLAR>
0

>  <SCORE.INTRA.POLAR.0>
0

>  <SCORE.INTRA.REPUL>
0

>  <SCORE.INTRA.REPUL.0>
0

>  <SCORE.INTRA.VDW>
2.20086

>  <SCORE.INTRA.VDW.0>
-1.22275

>  <SCORE.INTRA.norm>
0.0959421

>  <SCORE.RESTR>
0

>  <SCORE.RESTR.CAVITY>
0

>  <SCORE.RESTR.norm>
0

>  <SCORE.SYSTEM>
-0.897434

>  <SCORE.SYSTEM.CONST>
0

>  <SCORE.SYSTEM.DIHEDRAL>
0.333719

>  <SCORE.SYSTEM.VDW>
-1.06429

>  <SCORE.SYSTEM.norm>
-0.030946

>  <SCORE.heavy>
29

>  <SCORE.norm>
-0.262423

>  <TITLE>
    5284360_D                                                             

$$$$
Camostat.pdb
  RxDock  02242101123D
librxdock.so/0.1.0
 34 35  0  0  0  0  0  0  0  0999 V2000
  -51.1633   -1.9127   14.0843 O   0  0  0  0  0  0
  -45.1024   -0.5035   17.3988 O   0  0  0  0  0  0
  -45.7707   -2.6230   17.7175 O   0  0  0  0  0  0
  -45.0933    2.0169   19.1518 O   0  0  0  0  0  0
  -53.0674   -3.0570   14.5129 O   0  0  0  0  0  0
  -43.0383    1.0358   19.2571 N   0  0  0  0  0  0
  -49.3255   -6.3313   18.3663 N   0  0  0  0  0  0
  -49.3205   -7.3808   20.4554 N   0  0  0  0  0  0
  -49.7212   -5.0979   20.3849 N   0  3  0  0  0  0
  -47.1597   -1.7613   15.0730 C   0  0  0  0  0  0
  -45.6915   -1.7120   15.4567 C   0  0  0  0  0  0
  -47.6166   -2.7237   14.1997 C   0  0  0  0  0  0
  -48.0414   -0.8465   15.6074 C   0  0  0  0  0  0
  -49.8346   -1.8567   14.3971 C   0  0  0  0  0  0
  -48.9486   -2.7746   13.8619 C   0  0  0  0  0  0
  -49.3743   -0.8926   15.2730 C   0  0  0  0  0  0
  -45.5389   -1.6964   16.9619 C   0  0  0  0  0  0
  -44.9791   -0.3354   18.8220 C   0  0  0  0  0  0
  -51.1528   -3.7638   15.6744 C   0  0  0  0  0  0
  -44.3780    1.0266   19.0942 C   0  0  0  0  0  0
  -51.8754   -2.8819   14.7113 C   0  0  0  0  0  0
  -50.8792   -5.1158   15.3167 C   0  0  0  0  0  0
  -50.7400   -3.2715   16.9473 C   0  0  0  0  0  0
  -49.8962   -5.4818   17.5092 C   0  0  0  0  0  0
  -50.2725   -5.9447   16.1743 C   0  0  0  0  0  0
  -50.1367   -4.0727   17.8321 C   0  0  0  0  0  0
  -42.3455    2.3040   19.5191 C   0  0  0  0  0  0
  -42.1978   -0.1720   19.1554 C   0  0  0  0  0  0
  -49.4369   -6.2482   19.7390 C   0  0  0  0  0  0
  -48.7705   -7.0740   17.9910 H   0  0  0  0  0  0
  -49.1363   -8.2485   19.9925 H   0  0  0  0  0  0
  -49.4139   -7.3613   21.4509 H   0  0  0  0  0  0
  -50.5858   -4.6256   20.2220 H   0  0  0  0  0  0
  -49.0738   -4.7226   21.0486 H   0  0  0  0  0  0
  1 14  1  0  0  0
  1 21  1  0  0  0
  2 17  1  0  0  0
  2 18  1  0  0  0
  3 17  2  0  0  0
  4 20  2  0  0  0
  5 21  2  0  0  0
  6 20  1  0  0  0
  6 27  1  0  0  0
  6 28  1  0  0  0
  7 24  1  0  0  0
  7 29  1  0  0  0
  7 30  1  0  0  0
  8 29  2  0  0  0
  8 31  1  0  0  0
  8 32  1  0  0  0
  9 29  1  0  0  0
  9 33  1  0  0  0
  9 34  1  0  0  0
 10 11  1  0  0  0
 10 12  2  0  0  0
 10 13  1  0  0  0
 11 17  1  0  0  0
 12 15  1  0  0  0
 13 16  2  0  0  0
 14 15  2  0  0  0
 14 16  1  0  0  0
 18 20  1  0  0  0
 19 21  1  0  0  0
 19 22  2  0  0  0
 19 23  1  0  0  0
 22 25  1  0  0  0
 23 26  2  0  0  0
 24 25  2  0  0  0
 24 26  1  0  0  0
M  END
>  <CHROM.0>
-175.73918501,-177.73504183,-178.81821953

>  <CHROM.1>
76.66033838,-179.02324178,-3.02018064,175.73832792,-150.99422314,61.91566809
-127.73532771,-109.94308600,85.15964998,-107.52008645,-47.93624307,-2.45655697
17.06979075,2.93950102,0.65280112,2.32048688

>  <HEADER>
                                                                          

>  <MASTER>
        0    0    0    0    0    0    0    0   52    0   52    0          

>  <Name>
Camostat.pdb

>  <RI>
-7.57726e+08

>  <Rbt.Current_Directory>
/root/miniconda3/envs/rdock/share/rxdock-2013.1.1_148c5bd1-0/data/ligands/prepped_ligands/Camostat

>  <Rbt.Executable>
rbdock/0.1.0

>  <Rbt.Library>
librxdock.so/0.1.0

>  <Rbt.Parameter_File>
/root/miniconda3/envs/rdock/share/rxdock-2013.1.1_148c5bd1-0/data/scripts/dock.prm

>  <Rbt.Receptor>
def.prm

>  <SCORE>
-4.82583

>  <SCORE.INTER>
-3.38279

>  <SCORE.INTER.CONST>
1

>  <SCORE.INTER.POLAR>
-0.4666

>  <SCORE.INTER.REPUL>
0.000456543

>  <SCORE.INTER.ROT>
10

>  <SCORE.INTER.VDW>
-17.1986

>  <SCORE.INTER.norm>
-0.116648

>  <SCORE.INTRA>
-0.375647

>  <SCORE.INTRA.DIHEDRAL>
-0.333136

>  <SCORE.INTRA.DIHEDRAL.0>
23.8083

>  <SCORE.INTRA.POLAR>
0

>  <SCORE.INTRA.POLAR.0>
0

>  <SCORE.INTRA.REPUL>
0

>  <SCORE.INTRA.REPUL.0>
0

>  <SCORE.INTRA.VDW>
-0.209079

>  <SCORE.INTRA.VDW.0>
-1.22275

>  <SCORE.INTRA.norm>
-0.0129533

>  <SCORE.RESTR>
0

>  <SCORE.RESTR.CAVITY>
0

>  <SCORE.RESTR.norm>
0

>  <SCORE.SYSTEM>
-1.06739

>  <SCORE.SYSTEM.CONST>
0

>  <SCORE.SYSTEM.DIHEDRAL>
0.0694521

>  <SCORE.SYSTEM.POLAR>
-0.00482672

>  <SCORE.SYSTEM.VDW>
-1.0857

>  <SCORE.SYSTEM.norm>
-0.0368065

>  <SCORE.heavy>
29

>  <SCORE.norm>
-0.166408

>  <TITLE>
    5284360_D                                                             

$$$$
Camostat.pdb
  RxDock  02242101123D
librxdock.so/0.1.0
 34 35  0  0  0  0  0  0  0  0999 V2000
  -48.4773   -0.4693   13.9447 O   0  0  0  0  0  0
  -45.4828   -1.6462   19.0753 O   0  0  0  0  0  0
  -43.2682   -1.2797   19.0352 O   0  0  0  0  0  0
  -47.6134   -1.5799   21.2667 O   0  0  0  0  0  0
  -50.6138   -0.8380   13.2978 O   0  0  0  0  0  0
  -47.6553    0.4176   20.1690 N   0  0  0  0  0  0
  -49.4969   -6.0616   16.7545 N   0  0  0  0  0  0
  -48.9720   -7.1775   18.7408 N   0  0  0  0  0  0
  -47.4569   -5.6178   17.9351 N   0  3  0  0  0  0
  -45.4509   -1.9419   16.3325 C   0  0  0  0  0  0
  -44.3237   -2.4819   17.1945 C   0  0  0  0  0  0
  -45.9754   -0.6923   16.5794 C   0  0  0  0  0  0
  -45.9452   -2.6997   15.2927 C   0  0  0  0  0  0
  -47.4859   -0.9591   14.7470 C   0  0  0  0  0  0
  -46.9884   -0.1995   15.7908 C   0  0  0  0  0  0
  -46.9581   -2.2119   14.5010 C   0  0  0  0  0  0
  -44.2665   -1.7430   18.5135 C   0  0  0  0  0  0
  -45.5921   -0.8360   20.2587 C   0  0  0  0  0  0
  -49.6438   -2.4924   14.6529 C   0  0  0  0  0  0
  -47.0566   -0.7056   20.6177 C   0  0  0  0  0  0
  -49.6208   -1.1980   13.9105 C   0  0  0  0  0  0
  -49.4103   -2.4980   16.0587 C   0  0  0  0  0  0
  -49.8897   -3.7208   13.9720 C   0  0  0  0  0  0
  -49.5668   -4.9234   16.0606 C   0  0  0  0  0  0
  -49.3804   -3.6455   16.7463 C   0  0  0  0  0  0
  -49.8615   -4.8873   14.6254 C   0  0  0  0  0  0
  -49.0781    0.6470   20.4519 C   0  0  0  0  0  0
  -46.9639    1.4427   19.3647 C   0  0  0  0  0  0
  -48.6185   -6.2901   17.7936 C   0  0  0  0  0  0
  -50.1156   -6.8051   16.4995 H   0  0  0  0  0  0
  -49.8419   -7.6667   18.6679 H   0  0  0  0  0  0
  -48.3684   -7.3548   19.5181 H   0  0  0  0  0  0
  -46.6550   -6.0680   18.3242 H   0  0  0  0  0  0
  -47.3873   -4.6679   17.6299 H   0  0  0  0  0  0
  1 14  1  0  0  0
  1 21  1  0  0  0
  2 17  1  0  0  0
  2 18  1  0  0  0
  3 17  2  0  0  0
  4 20  2  0  0  0
  5 21  2  0  0  0
  6 20  1  0  0  0
  6 27  1  0  0  0
  6 28  1  0  0  0
  7 24  1  0  0  0
  7 29  1  0  0  0
  7 30  1  0  0  0
  8 29  2  0  0  0
  8 31  1  0  0  0
  8 32  1  0  0  0
  9 29  1  0  0  0
  9 33  1  0  0  0
  9 34  1  0  0  0
 10 11  1  0  0  0
 10 12  2  0  0  0
 10 13  1  0  0  0
 11 17  1  0  0  0
 12 15  1  0  0  0
 13 16  2  0  0  0
 14 15  2  0  0  0
 14 16  1  0  0  0
 18 20  1  0  0  0
 19 21  1  0  0  0
 19 22  2  0  0  0
 19 23  1  0  0  0
 22 25  1  0  0  0
 23 26  2  0  0  0
 24 25  2  0  0  0
 24 26  1  0  0  0
M  END
>  <CHROM.0>
175.42880586,62.26155403,53.79848657

>  <CHROM.1>
-120.76251662,175.67608250,6.81228383,172.36351687,-37.33266796,-146.55944102
19.98257034,47.59317753,83.57209357,59.56450537,-47.61177171,-2.27849591
17.10902150,-3.13010313,1.01224973,2.52314824

>  <HEADER>
                                                                          

>  <MASTER>
        0    0    0    0    0    0    0    0   52    0   52    0          

>  <Name>
Camostat.pdb

>  <RI>
-7.57726e+08

>  <Rbt.Current_Directory>
/root/miniconda3/envs/rdock/share/rxdock-2013.1.1_148c5bd1-0/data/ligands/prepped_ligands/Camostat

>  <Rbt.Executable>
rbdock/0.1.0

>  <Rbt.Library>
librxdock.so/0.1.0

>  <Rbt.Parameter_File>
/root/miniconda3/envs/rdock/share/rxdock-2013.1.1_148c5bd1-0/data/scripts/dock.prm

>  <Rbt.Receptor>
def.prm

>  <SCORE>
-6.59108

>  <SCORE.INTER>
-7.57016

>  <SCORE.INTER.CONST>
1

>  <SCORE.INTER.POLAR>
-0.866363

>  <SCORE.INTER.REPUL>
0

>  <SCORE.INTER.ROT>
10

>  <SCORE.INTER.VDW>
-20.0245

>  <SCORE.INTER.norm>
-0.26104

>  <SCORE.INTRA>
1.90488

>  <SCORE.INTRA.DIHEDRAL>
-1.62301

>  <SCORE.INTRA.DIHEDRAL.0>
23.8083

>  <SCORE.INTRA.POLAR>
0

>  <SCORE.INTRA.POLAR.0>
0

>  <SCORE.INTRA.REPUL>
0

>  <SCORE.INTRA.REPUL.0>
0

>  <SCORE.INTRA.VDW>
2.71639

>  <SCORE.INTRA.VDW.0>
-1.22275

>  <SCORE.INTRA.norm>
0.0656856

>  <SCORE.RESTR>
0

>  <SCORE.RESTR.CAVITY>
0

>  <SCORE.RESTR.norm>
0

>  <SCORE.SYSTEM>
-0.925799

>  <SCORE.SYSTEM.CONST>
0

>  <SCORE.SYSTEM.DIHEDRAL>
0.179094

>  <SCORE.SYSTEM.VDW>
-1.01535

>  <SCORE.SYSTEM.norm>
-0.0319241

>  <SCORE.heavy>
29

>  <SCORE.norm>
-0.227279

>  <TITLE>
    5284360_D                                                             

$$$$
Camostat.pdb
  RxDock  02242101123D
librxdock.so/0.1.0
 34 35  0  0  0  0  0  0  0  0999 V2000
  -49.0692    0.0840   14.6812 O   0  0  0  0  0  0
  -43.4960   -2.1962   18.7882 O   0  0  0  0  0  0
  -43.2256   -1.6110   16.6376 O   0  0  0  0  0  0
  -42.8770    0.9753   18.2425 O   0  0  0  0  0  0
  -50.9433   -0.1530   13.4361 O   0  0  0  0  0  0
  -44.2552    0.3778   19.9572 N   0  0  0  0  0  0
  -51.0373   -5.8737   16.0502 N   0  0  0  0  0  0
  -52.0771   -7.3521   17.5331 N   0  0  0  0  0  0
  -50.9939   -5.5033   18.4194 N   0  3  0  0  0  0
  -46.1722   -2.1664   16.5713 C   0  0  0  0  0  0
  -45.1217   -3.0049   17.2774 C   0  0  0  0  0  0
  -46.4060   -2.3373   15.2245 C   0  0  0  0  0  0
  -46.9021   -1.2375   17.2813 C   0  0  0  0  0  0
  -48.0988   -0.6524   15.2998 C   0  0  0  0  0  0
  -47.3657   -1.5855   14.5885 C   0  0  0  0  0  0
  -47.8629   -0.4829   16.6504 C   0  0  0  0  0  0
  -43.8603   -2.1983   17.4953 C   0  0  0  0  0  0
  -42.5682   -1.1782   19.2028 C   0  0  0  0  0  0
  -50.3327   -2.0028   14.7474 C   0  0  0  0  0  0
  -43.2483    0.1686   19.0832 C   0  0  0  0  0  0
  -50.1430   -0.6141   14.2347 C   0  0  0  0  0  0
  -50.2205   -3.1029   13.8486 C   0  0  0  0  0  0
  -50.6303   -2.2397   16.1216 C   0  0  0  0  0  0
  -50.7969   -4.6208   15.6572 C   0  0  0  0  0  0
  -50.4283   -4.3568   14.2671 C   0  0  0  0  0  0
  -50.8501   -3.4789   16.5742 C   0  0  0  0  0  0
  -44.9827    1.6535   19.9378 C   0  0  0  0  0  0
  -44.6634   -0.6045   20.9790 C   0  0  0  0  0  0
  -51.3424   -6.2412   17.3445 C   0  0  0  0  0  0
  -50.9836   -6.5990   15.3635 H   0  0  0  0  0  0
  -52.3682   -7.8984   16.7469 H   0  0  0  0  0  0
  -52.3327   -7.6387   18.4564 H   0  0  0  0  0  0
  -50.0322   -5.3310   18.6257 H   0  0  0  0  0  0
  -51.7009   -5.1058   19.0049 H   0  0  0  0  0  0
  1 14  1  0  0  0
  1 21  1  0  0  0
  2 17  1  0  0  0
  2 18  1  0  0  0
  3 17  2  0  0  0
  4 20  2  0  0  0
  5 21  2  0  0  0
  6 20  1  0  0  0
  6 27  1  0  0  0
  6 28  1  0  0  0
  7 24  1  0  0  0
  7 29  1  0  0  0
  7 30  1  0  0  0
  8 29  2  0  0  0
  8 31  1  0  0  0
  8 32  1  0  0  0
  9 29  1  0  0  0
  9 33  1  0  0  0
  9 34  1  0  0  0
 10 11  1  0  0  0
 10 12  2  0  0  0
 10 13  1  0  0  0
 11 17  1  0  0  0
 12 15  1  0  0  0
 13 16  2  0  0  0
 14 15  2  0  0  0
 14 16  1  0  0  0
 18 20  1  0  0  0
 19 21  1  0  0  0
 19 22  2  0  0  0
 19 23  1  0  0  0
 22 25  1  0  0  0
 23 26  2  0  0  0
 24 25  2  0  0  0
 24 26  1  0  0  0
M  END
>  <CHROM.0>
-62.96822311,-175.60592304,58.81461251

>  <CHROM.1>
65.90639087,-164.54531993,17.60039317,66.25725155,177.46029283,-61.80210650
102.30338902,125.52176310,-111.83322750,-114.00751192,-47.53707976,-2.11391920
16.82523537,3.01075006,0.58150856,2.47638359

>  <HEADER>
                                                                          

>  <MASTER>
        0    0    0    0    0    0    0    0   52    0   52    0          

>  <Name>
Camostat.pdb

>  <RI>
-7.57726e+08

>  <Rbt.Current_Directory>
/root/miniconda3/envs/rdock/share/rxdock-2013.1.1_148c5bd1-0/data/ligands/prepped_ligands/Camostat

>  <Rbt.Executable>
rbdock/0.1.0

>  <Rbt.Library>
librxdock.so/0.1.0

>  <Rbt.Parameter_File>
/root/miniconda3/envs/rdock/share/rxdock-2013.1.1_148c5bd1-0/data/scripts/dock.prm

>  <Rbt.Receptor>
def.prm

>  <SCORE>
-11.7299

>  <SCORE.INTER>
-9.1901

>  <SCORE.INTER.CONST>
1

>  <SCORE.INTER.POLAR>
-1.32367

>  <SCORE.INTER.REPUL>
0

>  <SCORE.INTER.ROT>
10

>  <SCORE.INTER.VDW>
-20.0896

>  <SCORE.INTER.norm>
-0.3169

>  <SCORE.INTRA>
-1.52198

>  <SCORE.INTRA.DIHEDRAL>
-1.28341

>  <SCORE.INTRA.DIHEDRAL.0>
23.8083

>  <SCORE.INTRA.POLAR>
0

>  <SCORE.INTRA.POLAR.0>
0

>  <SCORE.INTRA.REPUL>
0

>  <SCORE.INTRA.REPUL.0>
0

>  <SCORE.INTRA.VDW>
-0.880274

>  <SCORE.INTRA.VDW.0>
-1.22275

>  <SCORE.INTRA.norm>
-0.052482

>  <SCORE.RESTR>
0

>  <SCORE.RESTR.CAVITY>
0

>  <SCORE.RESTR.norm>
0

>  <SCORE.SYSTEM>
-1.01778

>  <SCORE.SYSTEM.CONST>
0

>  <SCORE.SYSTEM.DIHEDRAL>
0.123373

>  <SCORE.SYSTEM.VDW>
-1.07947

>  <SCORE.SYSTEM.norm>
-0.035096

>  <SCORE.heavy>
29

>  <SCORE.norm>
-0.404478

>  <TITLE>
    5284360_D                                                             

$$$$
