Baicalein.pdb
 OpenBabel02182114013D

 30 32  0  0  0  0  0  0  0  0999 V2000
    0.4890    0.8120   -0.0500 O   0  0  0  0  0  0  0  0  0  0  0  0
   -3.4430   -2.0080    0.1210 O   0  0  0  0  0  0  0  0  0  0  0  0
   -5.0030    0.2260   -0.0320 O   0  0  0  0  0  0  0  0  0  0  0  0
   -3.8440    2.7310   -0.1900 O   0  0  0  0  0  0  0  0  0  0  0  0
   -1.0160   -2.9660    0.1880 O   0  0  0  0  0  0  0  0  0  0  0  0
   -1.4490   -0.6480    0.0390 C   0  0  0  0  0  0  0  0  0  0  0  0
   -0.8680    0.6160   -0.0410 C   0  0  0  0  0  0  0  0  0  0  0  0
    1.3170   -0.2970    0.0330 C   0  0  0  0  0  0  0  0  0  0  0  0
   -2.8390   -0.7880    0.0430 C   0  0  0  0  0  0  0  0  0  0  0  0
   -0.5740   -1.8280    0.1180 C   0  0  0  0  0  0  0  0  0  0  0  0
    0.8790   -1.5640    0.1080 C   0  0  0  0  0  0  0  0  0  0  0  0
    2.7580    0.0270    0.0100 C   0  0  0  0  0  0  0  0  0  0  0  0
   -1.6760    1.7510   -0.1190 C   0  0  0  0  0  0  0  0  0  0  0  0
   -3.6450    0.3490   -0.0340 C   0  0  0  0  0  0  0  0  0  0  0  0
   -3.0640    1.6150   -0.1150 C   0  0  0  0  0  0  0  0  0  0  0  0
    3.6710   -0.8730   -0.5450 C   0  0  0  0  0  0  0  0  0  0  0  0
    3.2150    1.2340    0.5440 C   0  0  0  0  0  0  0  0  0  0  0  0
    5.0320   -0.5680   -0.5670 C   0  0  0  0  0  0  0  0  0  0  0  0
    4.5760    1.5400    0.5220 C   0  0  0  0  0  0  0  0  0  0  0  0
    5.4840    0.6390   -0.0330 C   0  0  0  0  0  0  0  0  0  0  0  0
    1.5280   -2.4280    0.1850 H   0  0  0  0  0  0  0  0  0  0  0  0
   -1.2260    2.7390   -0.1820 H   0  0  0  0  0  0  0  0  0  0  0  0
    3.3570   -1.8140   -0.9910 H   0  0  0  0  0  0  0  0  0  0  0  0
    2.5300    1.9510    0.9910 H   0  0  0  0  0  0  0  0  0  0  0  0
    5.7390   -1.2670   -1.0030 H   0  0  0  0  0  0  0  0  0  0  0  0
    4.9280    2.4790    0.9390 H   0  0  0  0  0  0  0  0  0  0  0  0
    6.5430    0.8780   -0.0510 H   0  0  0  0  0  0  0  0  0  0  0  0
   -2.7820   -2.7160    0.1740 H   0  0  0  0  0  0  0  0  0  0  0  0
   -5.2260   -0.7200    0.0300 H   0  0  0  0  0  0  0  0  0  0  0  0
   -4.7770    2.4530   -0.1760 H   0  0  0  0  0  0  0  0  0  0  0  0
  1  7  1  0  0  0  0
  1  8  1  0  0  0  0
  2  9  1  0  0  0  0
  2 28  1  0  0  0  0
  3 14  1  0  0  0  0
  3 29  1  0  0  0  0
  4 15  1  0  0  0  0
  4 30  1  0  0  0  0
  5 10  2  0  0  0  0
  6  7  2  0  0  0  0
  6  9  1  0  0  0  0
  6 10  1  0  0  0  0
  7 13  1  0  0  0  0
  8 11  2  0  0  0  0
  8 12  1  0  0  0  0
  9 14  2  0  0  0  0
 10 11  1  0  0  0  0
 11 21  1  0  0  0  0
 12 16  2  0  0  0  0
 12 17  1  0  0  0  0
 13 15  2  0  0  0  0
 13 22  1  0  0  0  0
 14 15  1  0  0  0  0
 16 18  1  0  0  0  0
 16 23  1  0  0  0  0
 17 19  2  0  0  0  0
 17 24  1  0  0  0  0
 18 20  2  0  0  0  0
 18 25  1  0  0  0  0
 19 20  1  0  0  0  0
 19 26  1  0  0  0  0
 20 27  1  0  0  0  0
M  END
$$$$
